%nprocshared=20
%mem=5GB
#p m062x/cc-pVTZ opt=(calcfc,maxcycles=900,Tight) freq IOP(7/33=1,2/16=3) scf=(maxcycle=900) 

Gaussian input prepared by ASE

0 1
O                 0.2129336305       -0.7805090996        1.1097753064
O                 0.1474238325        0.6707180046       -1.4079155416
C                -1.1783200202       -0.9151383759        0.8103508465
C                 0.6672496935        0.5179628758        0.9170303870
C                 0.6464937624        1.1655109287       -0.2236811149
H                -1.4000176632       -0.5822857652       -0.2443952246
H                -1.4500278094       -2.0036191149        0.9202429220
H                -1.7805899196       -0.3274975809        1.5034882243
H                 1.1485852534        0.9496342978        1.7924754351
H                 0.9938467005        2.1721028789       -0.3185055431
H                -0.1159367800       -0.2950313495       -1.2290722782



