%nprocshared=20
%mem=5GB
#p m062x/cc-pVTZ opt=(calcfc,maxcycles=900,Tight) freq IOP(7/33=1,2/16=3) scf=(maxcycle=900) 

Gaussian input prepared by ASE

0 1
O                 0.2564032099       -0.8135267660        1.0476923856
O                 2.3521306933       -0.0948508864       -0.6831062682
C                -1.1588916441       -0.9203035389        0.8776748372
C                 0.6750315467        0.5004664932        0.8810934947
C                 1.6660176108        0.8206336437        0.0833393744
H                -1.3783397323       -1.6023807136        0.0064439583
H                -1.6214249704       -1.3629307674        1.8054871936
H                -1.6007948460        0.0557326367        0.6762670316
H                 0.1520155467        1.2416756925        1.4823350075
H                 2.0091037770        1.8237524018       -0.0542023639
H                 1.9452733391       -1.0016618418       -0.4682190315



