%nprocshared=20
%mem=5GB
#p m062x/cc-pVTZ opt=(calcfc,maxcycles=900,Tight) freq IOP(7/33=1,2/16=3) scf=(maxcycle=900) 

Gaussian input prepared by ASE

0 1
O                 0.2301196691       -0.7510137056        1.1137626663
O                 0.3891027664        2.8517057056        0.4289473630
C                -1.1650694273       -0.8855586481        0.8332064087
C                 0.6719786247        0.5525433545        0.9264585965
C                -0.0790992910        1.5631625790        0.5583515909
H                -1.3966260008       -0.5416997414       -0.2158753734
H                -1.4268006736       -1.9770373523        0.9374307009
H                -1.7611893777       -0.2999781825        1.5333683065
H                 1.7341822048        0.6597256411        1.1377964345
H                -1.1214429779        1.4820605333        0.3351584311
H                 1.3372126821        2.8582642736        0.7964526187



