%nprocshared=20
%mem=5GB
#p m062x/cc-pVTZ opt=(calcfc,maxcycles=900,Tight) freq IOP(7/33=1,2/16=3) scf=(maxcycle=900) 

Gaussian input prepared by ASE

0 1
O                 0.1983117785       -0.7664238481        1.0240191931
O                -0.8460773658        1.5401008012        2.4582390237
C                -1.2181439196       -0.8848547197        0.8723809590
C                 0.6746084268        0.5342409570        0.9191586785
C                 0.2194473309        1.5679957124        1.5863554279
H                -1.4218068608       -1.6004237244        0.0244939465
H                -1.6639023369       -1.3196482359        1.8120328849
H                -1.6926420190        0.0758830825        0.6715711263
H                 1.5617292440        0.6026864539        0.2924529742
H                 0.6489818265        2.5411881028        1.4801962155
H                -1.1015289307        0.5618471164        2.5667736551



