%nprocshared=20
%mem=5GB
#p m062x/cc-pVTZ Opt=(ModRedun,Loose,maxcycles=900) Int(Grid=SG1) scf=(maxcycle=900) 

Gaussian input prepared by ASE

0 2
O                 0.5441036819       -4.0589883731        0.8699107571
O                 1.1228404580       -3.4891356238        1.9054190806
C                -0.3264450646       -0.2455303887        1.9170481885
C                 0.8016201300       -1.1399197430        1.4157044942
C                -1.3289726374       -0.9439662792        2.8305169140
H                -0.8779231445        0.1707266065        1.0469330115
H                 0.1089965831        0.6139369282        2.4702109517
H                 0.6940821704       -2.4062763437        1.9237812768
H                 0.7808876977       -1.2972779313        0.3161600991
H                 1.8066260716       -0.7932826283        1.7381262335
H                -1.8498457047       -1.7651335415        2.2932595966
H                -2.0949626289       -0.2232023766        3.1864873055
H                -0.8208307819       -1.3774858442        3.7181958939
H                -0.3224956246       -4.3756849356        1.2294655084

4 8 F
8 2 F
4 8 2 F

