%nprocshared=20
%mem=5GB
#p m062x/cc-pVTZ Opt=(ModRedun,Loose,maxcycles=900) Int(Grid=SG1) scf=(maxcycle=900) 

Gaussian input prepared by ASE

0 2
O                -0.4263829017       -2.6368655199        3.9549687822
O                 0.4720249931       -2.5092335087        3.0018060341
C                 1.3643591799        0.9719907569        2.9080580785
C                 1.1067214218       -0.3302348264        2.1586314874
C                 1.1308781021        0.9032466729        4.4140661055
H                 0.7156605061        1.7723429385        2.4919753993
H                 2.4152159528        1.2885981936        2.7355984776
H                 0.6827151593       -1.3649153662        2.9479478625
H                 0.3258095212       -0.2345238332        1.3742812344
H                 2.0284356945       -0.7664636434        1.7178398942
H                 0.0830477929        0.6126944048        4.6418837352
H                 1.3244498483        1.8930559838        4.8785698161
H                 1.8058533585        0.1579464520        4.8863555443
H                -1.2826988182       -2.6922359209        3.4607746303

4 8 F
8 2 F
4 8 2 F

