%nprocshared=20
%mem=5GB
#p m062x/cc-pVTZ opt=(ts,calcfc,noeigentest,maxcycles=900) freq scf=(maxcycle=900) IOP(7/33=1,2/16=3) 

Gaussian input prepared by ASE

0 2
O                 1.9553680000       -0.7660520000       -0.2831600000
O                 1.8383580000        0.3730780000        0.5082320000
C                -1.0353330000       -0.1394420000        0.4199580000
C                -0.3412640000        0.9030780000       -0.4029020000
C                -2.4644400000       -0.3747940000       -0.0801510000
H                -1.0567780000        0.1701110000        1.4654370000
H                -0.4707650000       -1.0698230000        0.3726140000
H                 0.9493900000        0.9686010000        0.0479680000
H                -0.1407090000        0.6268560000       -1.4368010000
H                -0.7088330000        1.9214020000       -0.2930450000
H                -3.0489650000        0.5436280000       -0.0377510000
H                -2.9680700000       -1.1266750000        0.5254530000
H                -2.4596910000       -0.7191720000       -1.1144540000
H                 2.6008390000       -0.5041800000       -0.9514260000



