%nprocshared=20
%mem=5GB
#p m062x/cc-pVTZ opt=(calcfc,maxcycles=900,Tight) freq IOP(7/33=1,2/16=3) scf=(maxcycle=900) 

Gaussian input prepared by ASE

0 1
O                 0.5018731747       -0.7365987647       -0.2449028779
O                 1.4929241434        0.1054945785       -0.3226462941
C                -0.6770844316       -0.0466709893       -0.0518512861
H                -0.6629111281        0.5310700590        0.8928000721
H                -1.4934391071       -0.7851800972       -0.0023017010
H                -0.8804998693        0.6566612937       -0.8790188081
H                 1.7876381308        0.2115128338        0.6191434463



