%nprocshared=20
%mem=5GB
#p m062x/cc-pVTZ opt=(calcfc,maxcycles=900,Tight) freq IOP(7/33=1,2/16=3) scf=(maxcycle=900) 

Gaussian input prepared by ASE

0 1
O                 0.1966658535       -0.7128486672        1.3254398804
O                 2.8761682784        0.0298367121        1.7912044126
C                -1.1730639210       -0.8407011693        0.9370317800
C                 0.7492483462        0.4573362079        0.8205605810
C                 1.9985548660        0.7869422468        1.0476400792
H                -1.7838940755        0.0219998401        1.3308127735
H                -1.2707367169       -0.8659596420       -0.1856942526
H                -1.5500397183       -1.7738697442        1.3560494634
H                 0.0868000015        1.0841460900        0.2266752955
H                 2.4356831668        1.6844381901        0.6651574387
H                 2.3570073695       -0.7880751146        2.1002476691



