%nprocshared=20
%mem=5GB
#p m062x/cc-pVTZ opt=(calcfc,maxcycles=900,Tight) freq IOP(7/33=1,2/16=3) scf=(maxcycle=900) 

Gaussian input prepared by ASE

0 1
O                 0.1705972549       -0.7597201909        1.0933883200
O                -0.7680423062        1.6259049288        2.5282017453
C                -1.2278005328       -0.8615667732        0.8150402088
C                 0.6562474973        0.5328786678        0.9420106711
C                 0.2496704481        1.5917372105        1.6011659712
H                -1.8374688885       -0.2662467844        1.5541806468
H                -1.4595665122       -0.4871018928       -0.2226265460
H                -1.5021234333       -1.9137750199        0.8931101258
H                 1.5007061712        0.5973977308        0.2585232838
H                 0.6880965467        2.5537048109        1.4421880421
H                -1.0865025097        0.6674350271        2.6462444760



