%nprocshared=20
%mem=5GB
#p m062x/cc-pVTZ opt=(calcfc,maxcycles=900,Tight) freq IOP(7/33=1,2/16=3) scf=(maxcycle=900) 

Gaussian input prepared by ASE

0 1
O                 0.1537718770       -0.7966586475        0.4987518526
O                 2.3136030512        2.1144049425        0.0764494016
C                -1.2044543303       -0.8855748059        0.9354236477
C                 0.6012270175        0.5180854730        0.4702044419
C                 1.8262289501        0.8271074022        0.1168664559
H                -1.6252692513        0.1409703905        1.1392611854
H                -1.8213304929       -1.3833867560        0.1339632479
H                -1.2573878526       -1.4875973661        1.8427587783
H                -0.1335179913        1.2663269066        0.7612589028
H                 2.5552873198        0.1006662549       -0.1723224843
H                 1.5566727276        2.7276112595        0.3680827982



