%nprocshared=20
%mem=5GB
#p m062x/cc-pVTZ opt=(calcfc,maxcycles=900,Tight) freq IOP(7/33=1,2/16=3) scf=(maxcycle=900) 

Gaussian input prepared by ASE

0 1
O                 0.0562779107       -0.7523331944        0.2576860164
O                 2.6221038061        0.0340557535       -0.6051410590
C                -1.2335844791       -0.9037278079        0.8549309047
C                 0.6401545473        0.4491766384        0.6385342208
C                 1.8353246425        0.7994433474        0.2264011160
H                -1.6712477050       -1.8709526440        0.4736737776
H                -1.1503092376       -0.9583743701        1.9777713642
H                -1.8891721828       -0.0755266301        0.5851574224
H                 0.0490964123        1.0838119858        1.2960419599
H                 2.2954297421        1.7217028836        0.5103266965
H                 2.0894616917       -0.8082398646       -0.8072450169



