%nprocshared=20
%mem=5GB
#p m062x/cc-pVTZ opt=(calcfc,maxcycles=900,Tight) freq IOP(7/33=1,2/16=3) scf=(maxcycle=900) 

Gaussian input prepared by ASE

0 1
O                 1.5537421925       -2.6551129269        2.0523084773
O                 0.8992110652        0.2238708227        3.0722594715
C                 0.5757164985       -2.7526651657        3.0661262926
C                 1.1356027594       -2.4449479585        4.4549566729
C                -0.0398785707       -4.1119068175        3.0063399843
C                 2.2470366002       -1.4704012865        1.9538394291
C                 1.9841134540       -0.2611787882        2.3572057870
H                -0.2445961851       -2.0137840718        2.8482087850
H                 1.8325788416       -3.2420473465        4.7882264833
H                 1.6806846612       -1.4835207113        4.4603778051
H                 0.3011725864       -2.3791179376        5.2046386287
H                 0.7190812816       -4.9200052534        3.2246121321
H                -0.4690712436       -4.3094147348        2.0019203697
H                -0.8686721983       -4.2063415129        3.7637994164
H                 3.1694779864       -1.6289670157        1.3727236502
H                 2.6870259349        0.5303653525        2.1432090167
H                 0.2947924300       -0.5520404020        3.2577927157



