%nprocshared=20
%mem=5GB
#p m062x/cc-pVTZ opt=(calcfc,maxcycles=900,Tight) freq IOP(7/33=1,2/16=3) scf=(maxcycle=900) 

Gaussian input prepared by ASE

0 1
O                 0.7489253908       -2.8136975015        1.3799976795
O                 2.8703208320       -1.8044295275        2.9506460101
C                -0.3445921272       -2.9853358528        0.5032782409
C                -1.3201463866       -3.9840622954        1.1260556568
C                 0.0747379517       -3.3813604149       -0.8741818824
C                 1.6762901913       -1.9187557440        0.8973293281
C                 2.6585506274       -1.4671903923        1.6221087558
H                -0.8839509820       -2.0007972628        0.4250350266
H                -0.8574758507       -4.9879081161        1.2282388421
H                -1.6368996424       -3.6444541814        2.1289612974
H                -2.2370425309       -4.0863802566        0.4846019676
H                 0.5620262459       -4.4007100395       -0.8869228062
H                 0.8034379129       -2.6490888524       -1.2801981572
H                -0.8115269705       -3.4146836773       -1.5691535565
H                 1.5575895848       -1.6334433365       -0.1601411189
H                 3.4011446504       -0.7831932902        1.2385402726
H                 2.1402938846       -2.4419311805        3.2005159734



