%nprocshared=20
%mem=5GB
#p m062x/cc-pVTZ opt=(calcfc,maxcycles=900,Tight) freq IOP(7/33=1,2/16=3) scf=(maxcycle=900) 

Gaussian input prepared by ASE

0 1
O                 0.7609547353        0.8919655464        2.4964618227
O                 0.0011186812        0.4681124037       -0.3820188688
C                 0.4180489908        2.2034768241        2.1012010496
C                -1.0647000129        2.3230579779        1.7488261503
C                 1.3176879530        2.7738317946        1.0545805333
C                 1.3739995833        0.0908215813        1.5603852652
C                 1.0398359648       -0.1239398229        0.3209239849
H                 0.5738785543        2.8193187866        3.0300724263
H                -1.5115266037        1.3306395116        1.5305065552
H                -1.6347669097        2.7613451725        2.5881199536
H                -1.2281763202        2.9790980049        0.8513199832
H                 1.1410291416        2.3125365844        0.0383697956
H                 2.3840994373        2.6220301178        1.3225306912
H                 1.1415796536        3.8824815823        0.9574049439
H                 2.2030224125       -0.4855584510        2.0011164269
H                 1.6082339376       -0.8008674585       -0.2996526992
H                -0.5328978274        0.9963502389        0.2794747880



