%nprocshared=20
%mem=5GB
#p m062x/cc-pVTZ opt=(calcfc,maxcycles=900,Tight) freq IOP(7/33=1,2/16=3) scf=(maxcycle=900) 

Gaussian input prepared by ASE

0 1
O                 2.5785080340       -3.1805946292        0.2579342491
O                 1.1711992479       -1.3691615045       -1.4276514424
C                 3.5278147784       -3.8090648271        1.0932301100
C                 3.5733623429       -5.2981962215        0.7505561549
C                 3.2755527285       -3.5642710058        2.5446120043
C                 2.4774631813       -1.8295716083        0.4996400510
C                 1.8235524393       -0.9999413263       -0.2607324805
H                 4.5406750587       -3.3829874993        0.8504990379
H                 2.6094018744       -5.7961460984        0.9851579350
H                 3.7848015581       -5.4433196113       -0.3244874163
H                 4.3821811772       -5.8093329699        1.3397773849
H                 2.3073637655       -4.0349083141        2.8878269891
H                 3.2151991864       -2.4739469181        2.7436731100
H                 4.1074077986       -3.9886553770        3.1750694793
H                 2.9662642130       -1.4760806213        1.4215155435
H                 1.7578795493        0.0480791374       -0.0082193538
H                 0.7577133398       -0.5386201114       -1.8031685501



