%nprocshared=20
%mem=5GB
#p m062x/cc-pVTZ opt=(calcfc,maxcycles=900,Tight) freq IOP(7/33=1,2/16=3) scf=(maxcycle=900) 

Gaussian input prepared by ASE

0 1
O                 1.5937711318       -0.6657574643        3.4990180696
O                 0.8147927648        1.4079955512        1.2751660865
C                 0.6748533717        0.2598039378        4.0401312752
C                -0.6874380298        0.1972719142        3.3492881575
C                 1.2441739338        1.6357563277        4.1528196883
C                 1.8485344470       -0.6211491012        2.1473521688
C                 1.5406161887        0.2279341325        1.2101776608
H                 0.5210592961       -0.1211477283        5.0877807492
H                -0.6344228967       -0.4183412663        2.4271050587
H                -1.4479080131       -0.2526389799        4.0131794226
H                -1.0508596060        1.2199748504        3.0583692648
H                 0.6201979953        2.4060136505        3.6105618577
H                 2.2721370305        1.6857593897        3.7370480496
H                 1.3004232518        1.9665543163        5.2284452202
H                 2.4508430843       -1.4991763186        1.8644577349
H                 1.8669913854        0.0342215769        0.1990508751
H                 0.5535972929        1.5435479242        2.2318192000



