%nprocshared=20
%mem=5GB
#p m062x/cc-pVTZ opt=(calcfc,maxcycles=900,Tight) freq IOP(7/33=1,2/16=3) scf=(maxcycle=900) 

Gaussian input prepared by ASE

0 1
O                 0.8769961432       -0.9297641408        2.9654930477
O                 2.8367904855        1.0277568177        0.5594545603
C                 0.3699898292        0.1454496019        3.7275542428
C                -0.0931608047       -0.3857463279        5.0841436075
C                -0.7104790847        0.8862325291        3.0106880482
C                 1.6534351158       -0.5297317875        1.9020027571
C                 2.0378857555        0.6859266646        1.6404223992
H                 1.2148891253        0.8639650780        3.9178878973
H                -0.9230086632       -1.1138165916        4.9680484619
H                 0.7394087303       -0.8883030748        5.6092633135
H                -0.4570486865        0.4585627982        5.7301761524
H                -1.6080057706        0.2264382880        2.8214705082
H                -0.3537433365        1.2633008852        2.0295491432
H                -1.0586106024        1.7704442824        3.6161098860
H                 1.9520674465       -1.3858319748        1.2761849320
H                 1.7712572785        1.5453054649        2.2377498076
H                 3.0547288139        0.1784265835        0.0768328260



