%nprocshared=20
%mem=5GB
#p m062x/cc-pVTZ opt=(calcfc,maxcycles=900,Tight) freq IOP(7/33=1,2/16=3) scf=(maxcycle=900) 

Gaussian input prepared by ASE

0 1
O                 4.2692320998       -1.7942468217       -0.0371065467
O                 1.0625721001       -1.4124557694        1.6391050094
C                 5.3442232075       -0.9279869732       -0.3335272836
C                 6.6269404519       -1.4648317601        0.3016470829
C                 5.1249186932        0.5119194798       -0.0039146372
C                 3.1976349283       -1.2335982416        0.6195879270
C                 2.1678105727       -1.9393363720        0.9876199066
H                 5.4886146739       -0.9903058317       -1.4478044817
H                 6.5722658011       -1.4276691267        1.4097271708
H                 6.7997134713       -2.5135833497       -0.0012647972
H                 7.5131546848       -0.8552448757       -0.0234044572
H                 5.0081464318        0.6852601441        1.1064921005
H                 4.2276046983        0.9192962277       -0.5147436398
H                 6.0129130072        1.1157822314       -0.3450560382
H                 3.2582342271       -0.1495555873        0.8064461579
H                 2.0778303965       -3.0023088882        0.8190503430
H                 1.2250938064       -0.4305107731        1.7447147588



