%nprocshared=20
%mem=5GB
#p m062x/cc-pVTZ opt=(calcfc,maxcycles=900,Tight) freq IOP(7/33=1,2/16=3) scf=(maxcycle=900) 

Gaussian input prepared by ASE

0 1
O                 1.0929870345        1.0219408758        2.5632725026
O                 0.5643882737        0.8508399531       -0.5110060697
C                 0.5057265561        2.2116756066        2.0800192967
C                 0.7904726962        3.3316534063        3.0808098311
C                -0.9562159937        2.0617256619        1.8148616923
C                 1.3433097869        0.0285477901        1.6443581123
C                 1.1423246955       -0.0593526513        0.3614198614
H                 1.0119675877        2.4966249352        1.1162402203
H                 0.2831522212        3.1437955550        4.0501122727
H                 1.8764459513        3.4183883981        3.2668881762
H                 0.4222331841        4.3145742630        2.6796906578
H                -1.5053833827        1.6877154225        2.7287639790
H                -1.1398816929        1.3449140693        0.9875029178
H                -1.4134284018        3.0487195834        1.5209886026
H                 1.8209544229       -0.8247482590        2.1517812142
H                 1.4507391479       -0.9528741303       -0.1610000771
H                 0.1825616808        1.5886624156        0.0472135705



