%nprocshared=20
%mem=5GB
#p m062x/cc-pVTZ opt=(calcfc,maxcycles=900,Tight) freq IOP(7/33=1,2/16=3) scf=(maxcycle=900) 

Gaussian input prepared by ASE

0 1
O                -0.0431464569       -1.2548738605        0.2453373666
O                 3.4131707321       -1.8929600871        1.1997747493
C                -0.5691545100       -0.4130218753       -0.7588926982
C                -0.1799358023        1.0509558995       -0.5532468806
C                -2.0483087243       -0.6020726255       -0.8390935973
C                 1.3226554529       -1.1384262670        0.3674850691
C                 2.0423627269       -2.0041741027        1.0205962196
H                -0.1278256106       -0.7319597005       -1.7437041910
H                -0.6691714391        1.4806502213        0.3457654338
H                 0.9150541238        1.1326440058       -0.4275085219
H                -0.4794130757        1.6669079958       -1.4440592727
H                -2.5612903285       -0.2592860067        0.1074966402
H                -2.3053753546       -1.6699092566       -0.9994562081
H                -2.4792876827       -0.0092071150       -1.6948559497
H                 1.7583359115       -0.2336876362       -0.0856896188
H                 1.6370769705       -2.8909756570        1.4850842807
H                 3.7012804521       -1.0520626200        0.7397019952



