%nprocshared=20
%mem=5GB
#p m062x/cc-pVTZ opt=(calcfc,maxcycles=900,Tight) freq IOP(7/33=1,2/16=3) scf=(maxcycle=900) 

Gaussian input prepared by ASE

0 1
O                 0.2090674068       -1.8345833961       -0.5025558463
O                 2.1954416105        0.1054706390       -1.1135134846
C                -0.7690848230       -2.6776266485        0.0687352791
C                -2.1487459285       -2.0193914717        0.0852887036
C                -0.3642848230       -3.1807956620        1.4152223618
C                 0.3902345504       -0.6740508917        0.2145478647
C                 1.2936617671        0.2199090395       -0.0659997346
H                -0.8275697564       -3.5587820624       -0.6287536879
H                -2.1537065583       -1.1193607842        0.7350055757
H                -2.4472740341       -1.7122075377       -0.9335366106
H                -2.9222130502       -2.7343278649        0.4767537789
H                -0.2744946060       -2.3367883456        2.1610609749
H                 0.6166110480       -3.6982725220        1.3690111111
H                -1.1233155369       -3.9102035180        1.8169662290
H                -0.3004239222       -0.5206499992        1.0590570656
H                 1.3825535155        1.1212698951        0.5222770414
H                 2.7716303409        0.9235385914       -1.0899747460



