%nprocshared=20
%mem=5GB
#p m062x/cc-pVTZ opt=(calcfc,maxcycles=900,Tight) freq IOP(7/33=1,2/16=3) scf=(maxcycle=900) 

Gaussian input prepared by ASE

0 1
O                 3.0928323967        1.7410586561        0.4211498449
O                 0.9515659676       -0.8570707409        1.8787965870
C                 2.4603577106        2.8652679389        0.9956117842
C                 1.1187127643        3.1632797238        0.3261417369
C                 3.3868548489        4.0354997997        0.9483888572
C                 2.4871069292        0.5471228314        0.7397544031
C                 1.5111509901        0.3772432495        1.5839717819
H                 2.2480664463        2.6300571032        2.0754055108
H                 1.2565045381        3.4399638937       -0.7400060752
H                 0.4535879483        2.2817995485        0.3718330868
H                 0.6035349558        4.0172237755        0.8438305645
H                 3.6408483177        4.3194199427       -0.1153604273
H                 4.3368935627        3.8122025275        1.4771981427
H                 2.9181137808        4.9344593366        1.4400341988
H                 2.9492291583       -0.2950041152        0.2003083900
H                 1.0447748806        1.1793340159        2.1367524136
H                 1.4508022930       -1.5399909613        1.3438519506



