%nprocshared=20
%mem=5GB
#p m062x/cc-pVTZ opt=(calcfc,maxcycles=900,Tight) freq IOP(7/33=1,2/16=3) scf=(maxcycle=900) 

Gaussian input prepared by ASE

0 1
O                 4.1955445139       -2.1269636155        1.7240034753
O                 0.9249240909       -0.5554361667        2.0265467558
C                 5.2898379319       -1.8099156884        0.8898093809
C                 4.9138808316       -1.8568174806       -0.5912270166
C                 6.4381277018       -2.7075699428        1.2149508944
C                 3.1293879997       -1.2787007056        1.5299537835
C                 2.0167945313       -1.3938067408        2.1954899770
H                 5.6039852311       -0.7528419437        1.1139807052
H                 4.0652505806       -1.1699593111       -0.7918869580
H                 5.7676464212       -1.5482473514       -1.2215878762
H                 4.6046874719       -2.8920051088       -0.9001224367
H                 6.1885359985       -3.7906058638        1.0114243714
H                 6.7210108681       -2.6183319921        2.2845714778
H                 7.3396903705       -2.4416064025        0.5936540816
H                 3.2753500377       -0.4948754162        0.7696579534
H                 1.8411247573       -2.1534970109        2.9427740756
H                 1.1742454756        0.1123234745        1.3238956272



