%nprocshared=20
%mem=5GB
#p m062x/cc-pVTZ opt=(calcfc,maxcycles=900,Tight) freq IOP(7/33=1,2/16=3) scf=(maxcycle=900) 

Gaussian input prepared by ASE

0 1
O                -0.3709250357       -1.5473211469        1.5013146908
O                 1.3824461735        0.3686311547        3.0673413782
C                -1.0926592808       -0.6694982732        2.3394101160
C                -2.4430849628       -1.3102372355        2.6600600649
C                -1.2500954463        0.6870551056        1.7352194638
C                 0.9571136792       -1.2318078553        1.3262161629
C                 1.7354649661       -0.4221539602        1.9840017620
H                -0.5378976713       -0.5657646842        3.3129732157
H                -2.3024833168       -2.3007509354        3.1410233145
H                -3.0228473298       -0.6692867122        3.3489316382
H                -3.0530811279       -1.4610713587        1.7285107716
H                -1.8486175470        0.6467334197        0.7777063691
H                -0.2635866911        1.1386651632        1.5008622114
H                -1.7885430640        1.3796418063        2.4422975394
H                 1.3863844460       -1.8208283038        0.5000695234
H                 2.7697893074       -0.3292058401        1.6874271442
H                 2.1855122077        0.9221500787        3.2920288174



