%nprocshared=20
%mem=5GB
#p m062x/cc-pVTZ opt=(calcfc,maxcycles=900,Tight) freq IOP(7/33=1,2/16=3) scf=(maxcycle=900) 

Gaussian input prepared by ASE

0 1
O                 1.8967288574        1.8057222844        0.9660662919
O                -0.0931484328       -0.0120391094        0.0716229737
C                 2.0924571358        2.7198256707       -0.0922260591
C                 1.0376432411        2.5341462226       -1.1830528648
C                 3.4860584072        2.6914480392       -0.6280802992
C                 2.1629297775        0.5015521210        0.6165348697
C                 1.2420369503       -0.3421448923        0.2502237989
H                 1.9165281461        3.7301770580        0.3710074400
H                 0.0505112344        2.3209711228       -0.7222506967
H                 0.9465004335        3.4423990181       -1.8061546768
H                 1.2899048498        1.6731552716       -1.8595800284
H                 3.7243476710        1.6957294381       -1.1060432310
H                 4.2270556212        2.8668032154        0.1795385348
H                 3.6314237416        3.4881328355       -1.4114855806
H                 3.2104135288        0.1839893698        0.7417085081
H                 1.4442895255       -1.3822806767        0.0413359203
H                -0.1580010409        0.9795723682        0.1911366411



