%nprocshared=20
%mem=5GB
#p m062x/cc-pVTZ opt=(calcfc,maxcycles=900,Tight) freq IOP(7/33=1,2/16=3) scf=(maxcycle=900) 

Gaussian input prepared by ASE

0 1
O                 4.1865542586       -2.0375560949        1.6380431182
O                 1.6627724710       -2.1090748783        2.9013227962
C                 5.3360301139       -1.8219141298        0.8467902756
C                 5.0214152844       -1.8895001675       -0.6476868794
C                 6.4027240498       -2.7870209890        1.2477919684
C                 3.2006237752       -1.1106065670        1.3878419700
C                 2.0402002035       -1.1471857428        1.9761710856
H                 5.7138476061       -0.7829337774        1.0568378416
H                 4.2362875925       -1.1498374069       -0.9097658139
H                 5.9228207453       -1.6671644616       -1.2472876208
H                 4.6503358754       -2.9094340753       -0.9386597919
H                 6.0846753737       -3.8557195186        1.0649960100
H                 6.6473003223       -2.6843362827        2.3256197784
H                 7.3459328383       -2.6050389065        0.6588936046
H                 3.4498888089       -0.3249715333        0.6568280941
H                 1.2661925064       -0.4180172919        1.7873638954
H                 2.4425666100       -2.7288502079        2.9992122322



