%nprocshared=20
%mem=5GB
#p m062x/cc-pVTZ opt=(calcfc,maxcycles=900,Tight) freq IOP(7/33=1,2/16=3) scf=(maxcycle=900) 

Gaussian input prepared by ASE

0 1
O                -0.3109848347       -0.3356465107        1.7831614940
O                 1.8302403619        0.8811866639        3.1466952029
C                -1.2568207651       -0.8483214977        0.8419253279
C                 0.4667865852        0.6643264411        1.2133291729
C                 1.4540743832        1.2277548607        1.8681445972
H                -1.9063810623       -1.5943162366        1.3841367719
H                -1.9059081816       -0.0204271484        0.4369954796
H                -0.7519195025       -1.3447443179        0.0129927260
H                 0.1921025395        0.9645344418        0.2039471831
H                 2.0573244851        2.0066734929        1.4531166836
H                 1.1975248326        0.1408671750        3.4392933121



