%nprocshared=20
%mem=5GB
#p m062x/cc-pVTZ opt=(calcfc,maxcycles=900,Tight) freq IOP(7/33=1,2/16=3) scf=(maxcycle=900) 

Gaussian input prepared by ASE

0 1
O                 0.2272366604       -0.7611356103        1.1385026497
O                 2.4798248738        2.0972133173        0.8497174636
C                -1.1787933607       -0.8401256572        0.8931316608
C                 0.7004422015        0.5235659260        0.9035523599
C                 1.9578950037        0.8462222954        1.0924368151
H                -1.4807387958       -1.9223077314        0.9938336593
H                -1.7543086591       -0.2275677980        1.6442952385
H                -1.4264341395       -0.4916158627       -0.1097168461
H                -0.0390705874        1.2413888889        0.5538679321
H                 2.6928851286        0.1554899267        1.4467691465
H                 1.7169515089        2.6772562352        0.5097321954



