%nprocshared=20
%mem=5GB
#p m062x/cc-pVTZ opt=(calcfc,maxcycles=900,Tight) freq IOP(7/33=1,2/16=3) scf=(maxcycle=900) 

Gaussian input prepared by ASE

0 1
O                 0.1599170587       -0.7982489466        0.5159759809
O                 2.3126924593        2.1141686951        0.0673538524
C                -1.2030876240       -0.8875038730        0.9374241545
C                 0.5970319834        0.5195682677        0.4727152339
C                 1.8184456302        0.8294994317        0.1079366748
H                -1.6238892989        0.1416021398        1.1279412003
H                -1.8092720415       -1.3865003963        0.1285764360
H                -1.2692656617       -1.4831618319        1.8480844772
H                -0.1403198058        1.2624576314        0.7708023055
H                 2.5466635362        0.1016804786       -0.1799024172
H                 1.5653063608        2.7289790673        0.3795040824



