%nprocshared=20
%mem=5GB
#p m062x/cc-pVTZ opt=(calcfc,maxcycles=900,Tight) freq IOP(7/33=1,2/16=3) scf=(maxcycle=900) 

Gaussian input prepared by ASE

0 1
O                 0.2223488054       -0.7428552041        1.0694788494
O                 0.4062433902        2.8759149566        0.4635914601
C                -1.1826188260       -0.8518729668        0.8295875151
C                 0.6651886878        0.5678382879        0.9447448582
C                -0.0721361934        1.5899179485        0.5804960326
H                -1.7557602415       -0.2230411738        1.5702017696
H                -1.4372607006       -0.5078273168       -0.2132364472
H                -1.4555623607       -1.9006400854        0.9482446595
H                 1.7236913607        0.6625901262        1.1793132932
H                -1.1111601065        1.5206907618        0.3386076394
H                 1.3855523970        2.8536424974        0.7364895119



