%nprocshared=20
%mem=5GB
#p m062x/cc-pVTZ opt=(calcfc,maxcycles=900,Tight) freq IOP(7/33=1,2/16=3) scf=(maxcycle=900) 

Gaussian input prepared by ASE

0 1
O                 0.1863978086       -0.7727965149        1.0834642107
O                -0.7905083842        1.5971335383        2.5135291201
C                -1.2121581578       -0.9021620570        0.8176211454
C                 0.6575106411        0.5257672212        0.9372859561
C                 0.2389956327        1.5782582172        1.5991620104
H                -1.4584718933       -0.5585488874       -0.2281749693
H                -1.4641808847       -1.9965448111        0.9151026437
H                -1.8142053978       -0.3344730028        1.5273805543
H                 1.5085053411        0.5974019871        0.2626715101
H                 0.6651914454        2.5473401271        1.4504661088
H                -1.1039242692        0.6354256080        2.6179507644



