%nprocshared=20
%mem=5GB
#p m062x/cc-pVTZ opt=(calcfc,maxcycles=900,Tight) freq IOP(7/33=1,2/16=3) scf=(maxcycle=900) 

Gaussian input prepared by ASE

0 1
O                 0.2321558138       -0.7539745128        1.0866401840
O                 0.3791337590        2.8640527452        0.4561099021
C                -1.1765936060       -0.8716077149        0.8746159588
C                 0.6628080984        0.5594679456        0.9488335143
C                -0.0850541400        1.5740046446        0.5849800014
H                -1.4465502471       -1.9592645387        1.0032861791
H                -1.7429031047       -0.2548957212        1.6293686193
H                -1.4486872174       -0.5461015426       -0.1296255253
H                 1.7222624424        0.6619151086        1.1757459244
H                -1.1255305091        1.4920258298        0.3535464487
H                 1.3619293366        2.8533719224        0.7169054400



