%nprocshared=20
%mem=5GB
#p m062x/cc-pVTZ opt=(calcfc,maxcycles=900,Tight) freq IOP(7/33=1,2/16=3) scf=(maxcycle=900) 

Gaussian input prepared by ASE

0 1
O                 0.2211030838       -0.7706667545        1.1616959170
O                 2.9143609909       -0.0281596811        1.6001284540
C                -1.1756326553       -0.8480963945        0.8675859102
C                 0.6957842884        0.5156060362        0.9386191994
C                 1.9498157383        0.8419913944        1.1431912904
H                -1.7691037918       -0.2180632668        1.5909670326
H                -1.3827573079       -0.4834085810       -0.1787380773
H                -1.4782319792       -1.8913495817        0.9600337154
H                -0.0319519697        1.2365234057        0.5710511717
H                 2.3220345901        1.8304654945        0.9781301810
H                 2.4505675117       -0.9221164625        1.7406717631



