%nprocshared=20
%mem=5GB
#p m062x/cc-pVTZ opt=(calcfc,maxcycles=900,Tight) freq IOP(7/33=1,2/16=3) scf=(maxcycle=900) 

Gaussian input prepared by ASE

0 1
O                 0.2377593471       -0.7601525479        1.0752142776
O                 0.3736492740        2.8614347378        0.4610227378
C                -1.1624647568       -0.8895818627        0.8183343810
C                 0.6628377898        0.5561540891        0.9478238741
C                -0.0857547192        1.5687292857        0.5800294388
H                -1.4112945775       -0.5585547933       -0.2309200112
H                -1.4282839071       -1.9784647616        0.9381923042
H                -1.7375901367       -0.2922905585        1.5261225239
H                 1.7193424219        0.6629154627        1.1862104123
H                -1.1234992420        1.4838086677        0.3376498105
H                 1.3557780667        2.8533171599        0.7244096765



