%nprocshared=20
%mem=5GB
#p m062x/cc-pVTZ opt=(calcfc,maxcycles=900,Tight) freq IOP(7/33=1,2/16=3) scf=(maxcycle=900) 

Gaussian input prepared by ASE

0 1
O                 2.7746156826        1.0300842890       -0.8839426758
O                 0.1110197690        0.3888125264       -0.0608053318
C                 2.5024651224        0.6832795016       -2.2254111891
C                 1.7581713865        1.8379254212       -2.8961063248
C                 1.8202994680       -0.6309516501       -2.4191018179
C                 2.4652605924        0.1188965819        0.0998923462
C                 1.2586506609       -0.1312582480        0.5188996067
H                 3.5070443730        0.6136052285       -2.7277181023
H                 1.4473974338        2.5973156530       -2.1484714633
H                 2.3879280288        2.3486695573       -3.6471276419
H                 0.8295728532        1.4861034412       -3.4219926229
H                 0.7082605416       -0.5135519867       -2.5811901123
H                 1.9626933589       -1.2848933452       -1.5335744444
H                 2.2436865193       -1.1664128949       -3.3155315364
H                 3.3433783735       -0.3013875319        0.6156511814
H                 1.0489413881       -0.8012107024        1.3396361233
H                 0.4152819148        1.0181568275       -0.7771383530



