%nprocshared=20
%mem=5GB
#p m062x/cc-pVTZ opt=(calcfc,maxcycles=900,Tight) freq IOP(7/33=1,2/16=3) scf=(maxcycle=900) 

Gaussian input prepared by ASE

0 1
O                 1.8819492756       -2.5102799096        2.6284727498
O                 1.9979591547        0.2404263266        3.3922534073
C                 0.6293650545       -2.7064673817        3.2501000536
C                -0.4638574086       -1.7169573579        2.8466810545
C                 0.8208890003       -2.8074272548        4.7276640090
C                 2.0302377899       -1.4675387176        1.7426983524
C                 2.1416800927       -0.2185138741        2.0913666812
H                 0.2806109974       -3.7152330002        2.8935769201
H                -0.0706893966       -0.8986726035        2.2079003135
H                -1.2571725448       -2.2313213902        2.2743465745
H                -0.9491087947       -1.2487087555        3.7455162334
H                 0.5468654967       -1.8557448090        5.2716286326
H                 1.8799886118       -3.0365912438        4.9682183044
H                 0.1910718792       -3.6381137905        5.1552758112
H                 2.1863056425       -1.7859554808        0.6996305980
H                 2.3301831859        0.5758169732        1.3843109628
H                 1.9186177189       -0.5709357388        3.9729247734



