%nprocshared=20
%mem=5GB
#p m062x/cc-pVTZ opt=(calcfc,maxcycles=900,Tight) freq IOP(7/33=1,2/16=3) scf=(maxcycle=900) 

Gaussian input prepared by ASE

0 1
O                 3.6107495132       -2.7726494698        0.5197190110
O                 1.5894172539       -0.1983424873        2.1172405553
C                 3.1661254457       -3.5845713301       -0.5465687510
C                 2.7391590047       -4.9444954613        0.0059874414
C                 4.1855695878       -3.6677491916       -1.6346333834
C                 2.8140618650       -1.6660026741        0.7055055025
C                 2.3238140886       -1.3483100941        1.8685964673
H                 2.2474184238       -3.1048248761       -0.9849372693
H                 3.0576296393       -5.0405587787        1.0650248127
H                 1.6413912532       -5.0697576501       -0.0204959112
H                 3.1962036853       -5.7968637518       -0.5660342341
H                 4.7529118475       -4.6448008131       -1.6212632909
H                 4.9288461285       -2.8480084677       -1.5472284651
H                 3.7089280364       -3.5751027211       -2.6513885373
H                 2.6731462346       -1.0288842434       -0.1821654052
H                 2.4525686663       -1.9455494658        2.7591862110
H                 1.5912830631        0.3421116400        1.2748104068



