%nprocshared=20
%mem=5GB
#p m062x/cc-pVTZ opt=(calcfc,maxcycles=900,Tight) freq IOP(7/33=1,2/16=3) scf=(maxcycle=900) 

Gaussian input prepared by ASE

0 1
O                 3.5975666535       -2.8026932948        0.5266284099
O                 2.4292335389       -2.1468551547        2.9800080096
C                 3.1589135950       -3.5859713349       -0.5632964803
C                 4.0420154090       -4.8320495685       -0.6298738928
C                 3.0838233253       -2.8396273549       -1.8545755652
C                 2.8358687195       -1.6694979973        0.6986157210
C                 2.3249897121       -1.3472993802        1.8515436203
H                 2.1126485729       -3.9254854688       -0.3257972880
H                 4.9419618762       -4.6906260922        0.0044033468
H                 3.4960628420       -5.7164748643       -0.2540897649
H                 4.3944277198       -5.0422987882       -1.6759289433
H                 3.9220614544       -3.1144612888       -2.5606272755
H                 3.1260591331       -1.7415903012       -1.6977149420
H                 2.1134872960       -3.0728108876       -2.3776769038
H                 2.7265318596       -1.0506267859       -0.2062492550
H                 1.7632385319       -0.4440590065        2.0386669452
H                 2.9402692892       -2.9618143808        2.7034820221



