%nprocshared=20
%mem=5GB
#p m062x/cc-pVTZ opt=(calcfc,maxcycles=900,Tight) freq IOP(7/33=1,2/16=3) scf=(maxcycle=900) 

Gaussian input prepared by ASE

0 1
O                 3.4492014383       -0.7670681330       -1.2295840823
O                 0.8997464514       -1.1818874325        1.3357139558
C                 4.7216528137       -1.3774856216       -1.2757928152
C                 5.1479094752       -2.0348956436        0.0368875158
C                 5.7465087415       -0.4304278873       -1.8076024947
C                 2.8087398029       -0.8062577557       -0.0121408487
C                 1.5798288332       -1.2116924484        0.1273316881
H                 4.6211082406       -2.2053557012       -2.0313509732
H                 4.4867139889       -1.6978487762        0.8623763395
H                 5.0793345472       -3.1365871435       -0.0184237700
H                 6.2044226180       -1.7731429315        0.3159857722
H                 6.4138035081       -0.0236740611       -0.9915419029
H                 5.2690976447        0.4266749994       -2.3267631407
H                 6.4150332473       -0.9460474381       -2.5537747562
H                 3.3790656292       -0.4161506330        0.8459277003
H                 0.9845547716       -1.5981930868       -0.6867252805
H                 1.5300189257       -0.7998934808        2.0129287880



