%nprocshared=20
%mem=5GB
#p m062x/cc-pVTZ opt=(calcfc,maxcycles=900,Tight) freq IOP(7/33=1,2/16=3) scf=(maxcycle=900) 

Gaussian input prepared by ASE

0 1
O                -0.3157292538       -0.8471350343        1.0667839453
O                 1.6473777137        1.2955717973        0.9609468037
C                -1.1854541681       -0.3644267737        2.0690057614
C                -2.6064092011       -0.8273387359        1.7471181419
C                -1.0881228726        1.1170475126        2.2297232712
C                 0.9946401697       -0.9387149240        1.4771984403
C                 1.8911198618        0.0013798108        1.3959697427
H                -0.8955657180       -0.8523806573        3.0407114287
H                -2.5760552003       -1.7219635287        1.0906602416
H                -3.1420464186       -1.0984011531        2.6750750144
H                -3.2105909838       -0.0355519264        1.2268601658
H                -0.9310541342        1.6057223400        1.2231388513
H                -0.2370502920        1.4026232002        2.8825605243
H                -2.0241224443        1.5478015838        2.6857027794
H                 1.2915077068       -1.9412158450        1.8244711270
H                 2.9137765495       -0.1952678348        1.6821964057
H                 2.4857770317        1.8196321448        1.1166068047



