%nprocshared=20
%mem=5GB
#p m062x/cc-pVTZ opt=(calcfc,maxcycles=900,Tight) freq IOP(7/33=1,2/16=3) scf=(maxcycle=900) 

Gaussian input prepared by ASE

0 1
O                 0.2451441719        0.7343852035        2.1208280740
O                 0.6025063516       -0.0483601836       -0.6063934978
C                 0.1811950486        2.1421558270        2.2101009207
C                -0.7155969746        2.7138058461        1.1119239528
C                 1.5317250331        2.7790999525        2.2310890615
C                 1.4241943736        0.2531813934        1.5991208044
C                 1.5776868417       -0.1577942752        0.3737265364
H                -0.3058415349        2.3644923022        3.1999029555
H                -1.6178840348        2.0800302185        0.9837897467
H                -1.0373449960        3.7410562749        1.3623651382
H                -0.1689202360        2.7552937725        0.1310806241
H                 2.0650772996        2.6419149822        1.2444779356
H                 2.1562916120        2.3295916835        3.0310474321
H                 1.4506784854        3.8856442584        2.4274375685
H                 2.2564323596        0.1600817686        2.3149763377
H                 2.5106287272       -0.5891781634        0.0421393244
H                 0.9245441980       -0.5706804453       -1.3971247225



