%nprocshared=20
%mem=5GB
#p m062x/cc-pVTZ opt=(calcfc,maxcycles=900,Tight) freq IOP(7/33=1,2/16=3) scf=(maxcycle=900) 

Gaussian input prepared by ASE

0 1
O                 1.4746300512       -0.7555706366        3.5303563742
O                 0.7535484077        1.4725055559        1.4212928936
C                 0.6087646745        0.1858034715        4.1286616459
C                 1.3708684914        0.9402014126        5.2182000108
C                -0.6281511378       -0.4866208849        4.6266117620
C                 1.8009311302       -0.5896217178        2.2037503580
C                 1.5144346910        0.3177388645        1.3156801952
H                 0.2899504904        0.9363973576        3.3532181959
H                 2.3236061752        0.4170978792        5.4437337316
H                 1.6242806107        1.9655949884        4.8928750464
H                 0.7884867786        1.0096746201        6.1766546806
H                -0.6488512530       -0.5741761691        5.7529294114
H                -0.7143816163       -1.5102234839        4.2060448660
H                -1.5529100327        0.0800919052        4.3212936005
H                 2.4382260251       -1.4330889211        1.8936615900
H                 1.8822786539        0.1719525917        0.3107623470
H                 1.0011574810        1.9189666676        2.2821906358



