%nprocshared=20
%mem=5GB
#p m062x/cc-pVTZ opt=(calcfc,maxcycles=900,Tight) freq IOP(7/33=1,2/16=3) scf=(maxcycle=900) 

Gaussian input prepared by ASE

0 1
O                 1.7154752910       -1.7256746025        3.2971139519
O                 2.3540193513       -0.9538039830       -0.1861881252
C                 1.6742312058       -0.8729522836        4.4218542918
C                 1.5422599105       -1.7261537265        5.6834577180
C                 0.6033237670        0.1624814935        4.3164801459
C                 1.9767707266       -1.0319246693        2.1376611993
C                 2.0921017373       -1.6378639965        0.9915423836
H                 2.6641871919       -0.3396932792        4.4662185772
H                 1.3313569289       -2.7825832307        5.4157106450
H                 2.4711935364       -1.7001398907        6.2816981538
H                 0.7037950903       -1.3562947783        6.3336972458
H                -0.2761891004       -0.0783867232        4.9836574000
H                 0.2262767209        0.2601617879        3.2770723457
H                 0.9823500016        1.1735398901        4.6384453804
H                 2.0851134659        0.0590907604        2.2457534421
H                 1.9904813665       -2.7088196969        0.8958873364
H                 2.3741486427       -1.6347222985       -0.9194873542



