%nprocshared=20
%mem=5GB
#p m062x/cc-pVTZ opt=(calcfc,maxcycles=900,Tight) freq IOP(7/33=1,2/16=3) scf=(maxcycle=900) 

Gaussian input prepared by ASE

0 1
O                 3.9346849791       -1.5282286225        2.6560298896
O                 1.0836762635        0.2339498835        1.1924141306
C                 3.4688091670       -2.3984677920        3.6657431042
C                 1.9933847169       -2.7917836255        3.5920024974
C                 3.8447785343       -1.8808112263        5.0150941612
C                 3.0199190735       -1.0100105401        1.7680274589
C                 2.0091183811       -0.2600994726        2.0996407896
H                 4.0518714002       -3.3476512044        3.5062580209
H                 1.4345254163       -2.1612851396        2.8692578666
H                 1.8877198380       -3.8467700301        3.2800335256
H                 1.4978858611       -2.6779685073        4.5940790129
H                 2.9511571949       -1.5094617589        5.5983834074
H                 4.5719601520       -1.0460248485        4.9350124014
H                 4.3161437750       -2.6861720252        5.6465768399
H                 3.2501543227       -1.2495372585        0.7176201897
H                 1.7659454077        0.0100561949        3.1166489117
H                 1.3659406008       -0.0813771779        0.2853979300



