%nprocshared=20
%mem=5GB
#p m062x/cc-pVTZ opt=(calcfc,maxcycles=900,Tight) freq IOP(7/33=1,2/16=3) scf=(maxcycle=900) 

Gaussian input prepared by ASE

0 1
O                 0.2721873798       -1.4928151472       -0.6050896435
O                 2.2072426236       -3.0989328406        0.7924757854
C                -0.5096462778       -0.4731581180       -1.1906773266
C                -1.9311319533       -0.4881140189       -0.6283899221
C                -0.4719939856       -0.5466822266       -2.6817326812
C                 1.2148627103       -0.9914253343        0.2631651790
C                 2.0920388594       -1.7202634498        0.8903884685
H                -0.0372583077        0.5019434204       -0.8867483786
H                -2.1001478183       -1.3835225769        0.0055572458
H                -2.1078984377        0.4042992274       -0.0008246045
H                -2.7024244840       -0.4942292520       -1.4455195177
H                -1.4036262520       -1.0110265837       -3.1211999817
H                 0.3980417195       -1.1396953449       -3.0330840772
H                -0.3794250019        0.4827103159       -3.1304459043
H                 1.1928512801        0.1038632234        0.3797637308
H                 2.8339918064       -1.2813127773        1.5409657749
H                 1.4875040570       -3.4021874697        0.1665399055



