%nprocshared=20
%mem=5GB
#p m062x/cc-pVTZ opt=(calcfc,maxcycles=900,Tight) freq IOP(7/33=1,2/16=3) scf=(maxcycle=900) 

Gaussian input prepared by ASE

0 1
O                -0.0763638685       -1.4283246507        2.1347624820
O                 2.1756550270       -0.1956695563        3.4950367003
C                -1.1212749956       -0.5071420951        2.3659781729
C                -1.3896864069        0.3761148615        1.1474443027
C                -0.8976882489        0.2874242239        3.6104631633
C                 1.0177748980       -0.8622248965        1.5213406141
C                 2.0458639940       -0.3358107103        2.1213180847
H                -2.0303185372       -1.1482931579        2.5360115936
H                -0.6237282590        0.1771571237        0.3690255245
H                -2.3851150337        0.1897929700        0.7048473962
H                -1.3298884881        1.4683805564        1.4043688064
H                -0.1978879044        1.1586303422        3.4432350338
H                -0.4689071010       -0.3486191970        4.4127536245
H                -1.8710104476        0.7059084011        3.9939686665
H                 1.0134632861       -0.9267285184        0.4215417949
H                 2.8761373507        0.0614781344        1.5563132821
H                 3.1221262867        0.0820395172        3.6648970106



