%nprocshared=20
%mem=5GB
#p m062x/cc-pVTZ opt=(calcfc,maxcycles=900,Tight) freq IOP(7/33=1,2/16=3) scf=(maxcycle=900) 

Gaussian input prepared by ASE

0 1
O                -0.2373222890        0.2748336107        0.0217156061
O                 2.6095007479       -1.9517086514        0.5420569528
C                -0.1326279837        1.6756383542       -0.1220287253
C                -1.5169482483        2.3234889306       -0.1530023567
C                 0.7120458989        2.0399899508       -1.2983975051
C                 0.9807736587       -0.2416248608        0.4004079209
C                 1.3992397533       -1.4372519656        0.1013861761
H                 0.3891088357        2.0582907811        0.7986851398
H                -2.3247306737        1.5717200213       -0.0324083266
H                -1.6159491829        3.0571480313        0.6676249393
H                -1.7044169300        2.8689947378       -1.1173203788
H                 0.1687680770        1.8894811382       -2.2776227987
H                 1.6322898838        1.4201149565       -1.3297102767
H                 1.0238533322        3.1211007486       -1.2389235835
H                 1.5924429948        0.4385504664        1.0143777066
H                 0.8540676544       -2.1459086516       -0.5044321002
H                 3.0474832208       -1.2396960354        1.0925041237



