%nprocshared=20
%mem=5GB
#p m062x/cc-pVTZ opt=(calcfc,maxcycles=900,Tight) freq IOP(7/33=1,2/16=3) scf=(maxcycle=900) 

Gaussian input prepared by ASE

0 1
O                -0.1943791005       -1.5404387198        1.8844454491
O                 2.3181930408       -2.5724146564        2.7979001252
C                -1.1021300721       -0.5405880362        2.2969548961
C                -1.3628128026       -0.6431089318        3.7998009661
C                -2.3453332321       -0.5511206567        1.4696674448
C                 1.0318145424       -1.0179874557        1.5418249785
C                 2.1768390751       -1.5040632213        1.9248409305
H                -0.6009346980        0.4521325147        2.1247477106
H                -0.9325329217       -1.5740346873        4.2245930585
H                -0.8894909093        0.2052430276        4.3268221786
H                -2.4592856649       -0.6373203800        4.0454513167
H                -3.2067968737       -1.0983175583        1.9545816795
H                -2.1571004740       -1.0281401885        0.4852410712
H                -2.6958242703        0.5013427310        1.2720859940
H                 1.0092935590       -0.1682874282        0.8409402386
H                 3.1031733007       -1.0846886047        1.5609006421
H                 3.3010996308       -2.6900858001        2.9456527469



