%nprocshared=20
%mem=5GB
#p m062x/cc-pVTZ opt=(calcfc,maxcycles=900,Tight) freq IOP(7/33=1,2/16=3) scf=(maxcycle=900) 

Gaussian input prepared by ASE

0 1
O                 0.2010310625        0.8694590654        2.2366750344
O                 1.6279670849       -1.3442354627        3.3555188446
C                 0.0858356318        2.2610891917        2.0269779566
C                 0.8043693371        3.0328461670        3.1338261013
C                -1.3534268831        2.6374336214        1.8967556717
C                 1.3853353685        0.3778213847        1.7370645245
C                 2.0267079729       -0.6431951203        2.2271854574
H                 0.6067834300        2.5116776723        1.0614910251
H                 0.3371340854        2.8458340984        4.1232347963
H                 1.8657319269        2.7287075471        3.1837778083
H                 0.7660692672        4.1371428865        2.9296394224
H                -1.9823338050        2.0997505149        2.6662092638
H                -1.7464419571        2.3736398434        0.8927504504
H                -1.5050038988        3.7444710024        2.0418564142
H                 1.7511029750        0.9003120945        0.8387581924
H                 2.9146437335       -1.0211880717        1.7422997868
H                 2.3635110863       -1.9872541566        3.5729692559



