%nprocshared=20
%mem=5GB
#p m062x/cc-pVTZ opt=(calcfc,maxcycles=900,Tight) freq IOP(7/33=1,2/16=3) scf=(maxcycle=900) 

Gaussian input prepared by ASE

0 1
O                 3.1341223810        0.9818425108        2.7142553487
O                 1.1536725515       -0.7031475512        0.1389345453
C                 2.3921591304        1.9559063951        3.4175101703
C                 2.5414611259        1.7581241969        4.9260205104
C                 0.9617662121        2.0654274425        3.0027201037
C                 2.4234038632        0.0276902183        2.0226141473
C                 1.8038147063        0.2560931015        0.9010110760
H                 2.8787131236        2.9388592065        3.1656864377
H                 2.9113903913        0.7383400021        5.1614018917
H                 3.2525688613        2.4852211811        5.3586193825
H                 1.5598158072        1.8972597885        5.4548343675
H                 0.3613225015        1.1570096593        3.3042667029
H                 0.8724819510        2.1836657196        1.9026644139
H                 0.4830819390        2.9645363536        3.4844109927
H                 2.5269554067       -0.9879655539        2.4366880297
H                 1.6883239640        1.2454462537        0.4835605656
H                 1.4533841531       -1.5986451449        0.4706568925



