%nprocshared=20
%mem=5GB
#p m062x/cc-pVTZ opt=(calcfc,maxcycles=900,Tight) freq IOP(7/33=1,2/16=3) scf=(maxcycle=900) 

Gaussian input prepared by ASE

0 1
O                 3.4546294752       -2.8243746826       -0.0055795571
O                 1.1076256415       -1.7024415651       -1.1827868118
C                 3.8191874207       -3.7577891581        0.9892632352
C                 5.3374417720       -3.8653946940        1.1318714515
C                 3.1669442541       -5.0752430678        0.7266540058
C                 2.7648596025       -1.7543182614        0.5170022434
C                 1.6979326862       -1.2351687814       -0.0179770297
H                 3.4244063744       -3.3785394360        1.9724538494
H                 5.8663710774       -3.3050053803        0.3328661530
H                 5.6745387648       -3.4758552942        2.1096805808
H                 5.6771858873       -4.9347608667        1.0713713283
H                 3.8588413824       -5.8041486118        0.2102617693
H                 2.2671793594       -4.9525088321        0.0883484899
H                 2.8451472339       -5.5637670833        1.6896454617
H                 3.1806790902       -1.3292875052        1.4444610079
H                 1.2145797096       -0.3727507296        0.4167961342
H                 0.2552193190       -1.1903003871       -1.2963543033



