%nprocshared=20
%mem=5GB
#p m062x/cc-pVTZ opt=(calcfc,maxcycles=900,Tight) freq IOP(7/33=1,2/16=3) scf=(maxcycle=900) 

Gaussian input prepared by ASE

0 1
O                 0.3859270616       -1.2089865130        2.4168521627
O                 1.9588471564        1.0986101769        2.8361495030
C                -0.9341026315       -0.7118792141        2.3514059808
C                -1.0036287912        0.7128397147        1.8015383449
C                -1.5799077264       -0.8214400998        3.6934200462
C                 1.2232850128       -0.6785639817        1.4621906730
C                 1.9814404279        0.3602886891        1.6622845130
H                -1.5156745943       -1.3604338966        1.6390176836
H                -0.3580671300        1.4085812653        2.3772168110
H                -0.6784875207        0.7350877402        0.7454729115
H                -2.0617077494        1.0885953289        1.8452072883
H                -1.0327130996       -0.2014247552        4.4633842551
H                -1.5910262597       -1.8712203333        4.0538535762
H                -2.6456739906       -0.4577544467        3.6555175966
H                 1.2513262682       -1.2246052753        0.5057444677
H                 2.6578819078        0.7283154178        0.9050487827
H                 2.6968452802        1.7716743454        2.7719148208



