%nprocshared=20
%mem=5GB
#p m062x/cc-pVTZ opt=(calcfc,maxcycles=900,Tight) freq IOP(7/33=1,2/16=3) scf=(maxcycle=900) 

Gaussian input prepared by ASE

0 1
O                -0.3864338561       -1.2864912870        1.5171747511
O                 0.9837243364       -2.0818850763       -0.8464450961
C                -1.1338178925       -0.4149631848        2.3392046345
C                -1.9033990474        0.6112820422        1.5075930004
C                -0.3427191385        0.1978376860        3.4476753894
C                 0.8506082722       -0.8067430763        1.1518483396
C                 1.5011899808       -1.2085440260        0.0985907798
H                -1.9007691461       -1.0852339112        2.8176073287
H                -1.2608724986        1.0516313166        0.7167301737
H                -2.7626083570        0.1259625777        1.0098878672
H                -2.2987884034        1.4392486760        2.1562599801
H                 0.5363310933        0.7930673774        3.0608186015
H                 0.0463945104       -0.5912024402        4.1244920096
H                -0.9822984976        0.8885740424        4.0668547733
H                 1.3018391730       -0.0951052605        1.8615659196
H                 2.5015008920       -0.8545813667       -0.1026832044
H                 1.7421875662       -2.3378278976       -1.4472857582



