%nprocshared=20
%mem=5GB
#p m062x/cc-pVTZ opt=(calcfc,maxcycles=900,Tight) freq IOP(7/33=1,2/16=3) scf=(maxcycle=900) 

Gaussian input prepared by ASE

0 1
O                 1.5486273190       -2.9834809824        1.5943341040
O                 2.0471163520        0.1928783042       -0.0700213731
C                 0.8714228069       -3.2217437704        2.8102708428
C                -0.3389951659       -4.1097508291        2.5215770171
C                 0.4973541322       -1.9855767528        3.5599596390
C                 1.9327363980       -1.6812609686        1.3694381038
C                 1.6503355523       -1.0994382253        0.2399319693
H                 1.5791540779       -3.8082457950        3.4594842384
H                -0.4838003830       -4.2045100513        1.4250990197
H                -0.2069157110       -5.1257113326        2.9361434086
H                -1.2787207684       -3.6749312235        2.9580149196
H                -0.6011991237       -1.7436533685        3.4534716581
H                 1.0743708325       -1.1081150862        3.2005333720
H                 0.7028704145       -2.0981947526        4.6620675393
H                 2.5166638556       -1.1978052400        2.1688353972
H                 1.0806074405       -1.6058106328       -0.5251951859
H                 1.6463827238        0.4110196633       -0.9608690630



