%nprocshared=20
%mem=5GB
#p m062x/cc-pVTZ opt=(calcfc,maxcycles=900,Tight) freq IOP(7/33=1,2/16=3) scf=(maxcycle=900) 

Gaussian input prepared by ASE

0 1
O                 0.3625778601        0.7240947433        2.3231824751
O                 2.1160625376       -1.0111472625       -0.3793659951
C                 0.2812166799        2.1091825755        2.0609053021
C                -0.5378162826        2.7365428467        3.1890083233
C                -0.2694681019        2.4382945408        0.7123871727
C                 1.2879961764        0.0394588720        1.5690143085
C                 1.1826976163       -0.2454805728        0.3034022921
H                 1.3213830339        2.5338771679        2.1244243480
H                -0.9505268348        1.9357955724        3.8376111778
H                 0.0714932143        3.4055760637        3.8235337456
H                -1.3986146778        3.3429474215        2.7966692423
H                -1.3648270941        2.7122315316        0.7552015760
H                -0.1653446437        1.5865791701        0.0082467586
H                 0.2701525299        3.3197027349        0.2635099633
H                 2.1204547434       -0.3749996480        2.1597541999
H                 0.3870329997        0.0973928769       -0.3414064512
H                 2.8048382043       -1.2969666200        0.2882252539



