%nprocshared=20
%mem=5GB
#p m062x/cc-pVTZ opt=(calcfc,maxcycles=900,Tight) freq IOP(7/33=1,2/16=3) scf=(maxcycle=900) 

Gaussian input prepared by ASE

0 1
O                 3.2914631470       -0.9121559748       -1.4345801575
O                 0.6474792482       -1.6571778380       -0.6901989674
C                 4.6003821643       -1.4398346162       -1.3880665314
C                 5.2663196277       -1.2866749833       -2.7555758557
C                 4.6043504143       -2.8353896942       -0.8565782087
C                 2.8031657570       -0.8145442297       -0.1516411231
C                 1.5901710820       -1.1427384067        0.1874525967
H                 5.1797775128       -0.8076400650       -0.6593846464
H                 4.5519277715       -0.8883240502       -3.5060241683
H                 6.1166206076       -0.5836596680       -2.6904319387
H                 5.6628065644       -2.2662856313       -3.1374022919
H                 4.6543240124       -3.6157531098       -1.6721892981
H                 3.6854503399       -3.0354258329       -0.2669319702
H                 5.4838247821       -3.0040335404       -0.1727319764
H                 3.5207483168       -0.4147810857        0.5825260572
H                 1.2191846480       -1.0426038972        1.1967914128
H                 1.0856130654       -1.6830467285       -1.5897278768



