%nprocshared=20
%mem=5GB
#p m062x/cc-pVTZ opt=(calcfc,maxcycles=900,Tight) freq IOP(7/33=1,2/16=3) scf=(maxcycle=900) 

Gaussian input prepared by ASE

0 1
O                 3.0050676512        1.0359947314       -0.8980101609
O                 0.7956754571       -1.0751093060        1.1147364607
C                 2.5971736216        0.7114634285       -2.2103283975
C                 3.8196465119        0.4045593164       -3.0754192763
C                 1.7012382493        1.7532228837       -2.7952271975
C                 2.5218845175        0.1550092406        0.0423586946
C                 1.2639232782       -0.1338849594        0.2100659144
H                 1.9955011575       -0.2378867794       -2.1549150550
H                 4.7622308041        0.6987100825       -2.5682486552
H                 3.8826654508       -0.6772794936       -3.2925354262
H                 3.7874568987        0.9405596889       -4.0624845069
H                 2.2346255900        2.4295265292       -3.5265254908
H                 1.2457018552        2.4028063352       -2.0189524889
H                 0.8597594703        1.2633698287       -3.3622536775
H                 3.3107859877       -0.3066800773        0.6573499092
H                 0.4603798333        0.3133477925       -0.3562586373
H                 1.5974438654       -1.4921688049        1.5448660852



