%nprocshared=20
%mem=5GB
#p m062x/cc-pVTZ opt=(calcfc,maxcycles=900,Tight) freq IOP(7/33=1,2/16=3) scf=(maxcycle=900) 

Gaussian input prepared by ASE

0 1
O                 0.2087511669       -1.3695060128        2.3799423378
O                 1.7861971001       -3.2298591094        0.8491642888
C                -0.8813422858       -0.4844897212        2.5293400893
C                -0.5119141439        0.9748344658        2.2630543499
C                -1.5200778434       -0.6837741192        3.8643952104
C                 1.0560147039       -1.0197487711        1.3534388888
C                 1.7933133516       -1.8534660906        0.6786365584
H                -1.6505740433       -0.7609801257        1.7559179734
H                 0.4923432524        1.2253681547        2.6641924966
H                -0.5148533615        1.1871533694        1.1784354933
H                -1.2567960948        1.6627959795        2.7472962058
H                -0.8448582309       -0.3607888965        4.7108258873
H                -1.7841009335       -1.7494845367        4.0275748780
H                -2.4699205969       -0.0810924819        3.9287004798
H                 1.1116543069        0.0605372565        1.1445774917
H                 2.4694447258       -1.4919634052       -0.0820111086
H                 2.4723257500       -3.5978937080        0.2202281155



