%nprocshared=20
%mem=5GB
#p m062x/cc-pVTZ opt=(calcfc,maxcycles=900,Tight) freq IOP(7/33=1,2/16=3) scf=(maxcycle=900) 

Gaussian input prepared by ASE

0 1
O                 2.9043911851        0.9325028357       -0.9214793269
O                 0.1667893800        0.4778584632       -0.0716642319
C                 2.5498734742        0.6203589176       -2.2521786269
C                 1.7048420976       -0.6415107230       -2.4271623768
C                 3.7815011339        0.5960270084       -3.0963177303
C                 2.5134138777        0.0895372316        0.0936269215
C                 1.2945495974       -0.0698449032        0.5214344147
H                 1.9216647762        1.4849929677       -2.6044682819
H                 1.7103018814       -1.2603936626       -1.5056603650
H                 0.6518000824       -0.3916900434       -2.6511672036
H                 2.0987029471       -1.2723938499       -3.2694749383
H                 4.1103399223       -0.4614109477       -3.3207634706
H                 4.6276287144        1.0955255771       -2.5799421041
H                 3.6261520179        1.1185040701       -4.0824444727
H                 3.3590544336       -0.3646906349        0.6342800872
H                 1.0655619771       -0.6953456090        1.3715733662
H                 0.4921680707        1.0686839019       -0.8111483146



