%nprocshared=20
%mem=5GB
#p m062x/cc-pVTZ opt=(calcfc,maxcycles=900,Tight) freq IOP(7/33=1,2/16=3) scf=(maxcycle=900) 

Gaussian input prepared by ASE

0 1
O                 0.1886371710       -0.7724627712        1.1408554455
O                 0.0813870366        0.7138059063       -1.4044880456
C                -1.2063140875       -0.8594824153        0.8410132568
C                 0.6698995394        0.5102463154        0.9114494916
C                 0.6378035167        1.1612899617       -0.2270073745
H                -1.7866843514       -0.1444791194        1.4924506089
H                -1.4135186510       -0.6122479714       -0.2390946584
H                -1.5172125460       -1.8840060180        1.0463999556
H                 1.1492078644        0.9548644234        1.7815106605
H                 1.0265677650        2.1532078038       -0.3155197670
H                 0.0016257903       -0.2972726187       -1.3311811571



