%nprocshared=20
%mem=5GB
#p m062x/cc-pVTZ opt=(calcfc,maxcycles=900,Tight) freq IOP(7/33=1,2/16=3) scf=(maxcycle=900) 

Gaussian input prepared by ASE

0 1
O                 0.1867942251       -0.7924075020        1.0330310669
O                -1.3145509645        1.9203646783        0.2135382931
C                -1.2064027018       -1.0877690240        0.9100243014
C                 0.5860993643        0.5330964221        0.9182359758
C                -0.0183033209        1.6508585541        0.5922340885
H                -1.8153571934       -0.1736346999        0.6531919736
H                -1.3308392536       -1.8405560615        0.0802538929
H                -1.5834509137       -1.5162300348        1.8388654978
H                 1.6521174203        0.5958652753        1.1282210831
H                 0.5613463748        2.5481479085        0.6340806513
H                -1.6669285147        1.1123517962       -0.2933747020



