%nprocshared=20
%mem=5GB
#p m062x/cc-pVTZ opt=(calcfc,maxcycles=900,Tight) freq IOP(7/33=1,2/16=3) scf=(maxcycle=900) 

Gaussian input prepared by ASE

0 1
O                 0.2141238006       -0.7427698934        1.1267993081
O                 0.4077057991        2.8636305918        0.3870783095
C                -1.1895693849       -0.8649733943        0.8858044633
C                 0.6772930720        0.5508793910        0.9230128634
C                -0.0524612287        1.5764128309        0.5532672154
H                -1.4566758330       -1.9334056679        1.1298056971
H                -1.7646018616       -0.1712992716        1.5631858716
H                -1.4377212293       -0.6408925546       -0.1518364184
H                 1.7448156837        0.6064437133        1.1273073801
H                -1.0992463248        1.4880446526        0.3550120322
H                 1.3224168025        2.9184549520        0.8278884839



