%nprocshared=20
%mem=5GB
#p m062x/cc-pVTZ opt=(calcfc,maxcycles=900,Tight) freq IOP(7/33=1,2/16=3) scf=(maxcycle=900) 

Gaussian input prepared by ASE

0 1
O                 0.2055295453       -0.7754608449        1.1493607188
O                 1.4485491423        0.8066177387        3.2143099354
C                -1.1872844188       -0.9217276328        0.8629308703
C                 0.6501837138        0.5295995558        0.9799996230
C                 1.2781314848        1.2106050694        1.9089157158
H                -1.3580066928       -1.7147486093        0.0790931218
H                -1.7072743163       -1.2445117398        1.8095631308
H                -1.6367645752        0.0095695429        0.5177594351
H                 0.5414867231        0.9291435071       -0.0264683423
H                 1.6878192474        2.1776030763        1.7090560604
H                 0.8841226088       -0.0321514360        3.3234176797



