%nprocshared=20
%mem=5GB
#p m062x/cc-pVTZ opt=(calcfc,maxcycles=900,Tight) freq IOP(7/33=1,2/16=3) scf=(maxcycle=900) 

Gaussian input prepared by ASE

0 1
O                 0.2117245971       -0.7309812317        1.1125432654
O                 0.4355585207        2.8758335879        0.3619750727
C                -1.1858931204       -0.9154156134        0.8758674437
C                 0.6913873307        0.5591204758        0.9250748518
C                -0.0287369344        1.5958682731        0.5679375286
H                -1.3304042570       -1.7225931584        0.1012637242
H                -1.6856191696       -1.2586063917        1.8262282569
H                -1.6660053778       -0.0008277164        0.5272826492
H                 1.7592634545        0.5878062271        1.1330312941
H                -1.0744775512        1.5138319977        0.3616132643
H                 1.3263404213        2.9628763758        0.8446205934



