%nprocshared=20
%mem=5GB
#p m062x/cc-pVTZ opt=(calcfc,maxcycles=900,Tight) freq IOP(7/33=1,2/16=3) scf=(maxcycle=900) 

Gaussian input prepared by ASE

0 1
O                 0.2172428606       -0.7480538485        1.1209846705
O                 0.4068587397        2.8590453446        0.3822559920
C                -1.1777563490       -0.8852200791        0.8407536936
C                 0.6756932220        0.5485789916        0.9256651783
C                -0.0547466879        1.5731558259        0.5546235786
H                -1.3878891357       -0.6690578824       -0.2462366912
H                -1.4295458055       -1.9621784244        1.0585942364
H                -1.7779619558       -0.2219061095        1.4638571901
H                 1.7426664239        0.6041258960        1.1328146364
H                -1.1014593599        1.4869273379        0.3550482293
H                 1.3185890009        2.9182437162        0.8286403821



