%nprocshared=20
%mem=5GB
#p m062x/cc-pVTZ opt=(calcfc,maxcycles=900,Tight) freq IOP(7/33=1,2/16=3) scf=(maxcycle=900) 

Gaussian input prepared by ASE

0 1
O                 0.2055838076       -0.7827631984        1.0714398824
O                -0.7311806297        1.5757900127        2.5867710968
C                -1.2023994793       -0.9275703582        0.8714880868
C                 0.6519098017        0.5259671652        0.9387707368
C                 0.2592140689        1.5694911600        1.6300158117
H                -1.3663208795       -1.7237951638        0.0894485652
H                -1.6995659095       -1.2472303918        1.8313499069
H                -1.6493910387        0.0075432664        0.5334774142
H                 1.4547057082        0.6206497089        0.2100855383
H                 0.6821255371        2.5384963844        1.4717506694
H                -1.2324862277        0.6952261220        2.5012405653



