%nprocshared=20
%mem=5GB
#p m062x/cc-pVTZ opt=(calcfc,maxcycles=900,Tight) freq IOP(7/33=1,2/16=3) scf=(maxcycle=900) 

Gaussian input prepared by ASE

0 1
O                 0.1762019976       -0.7693288767        1.0883392154
O                -0.6953820301        1.6442847036        2.6136609291
C                -1.2190378640       -0.8887475865        0.8012648860
C                 0.6420476448        0.5317809479        0.9480387619
C                 0.2728234731        1.5858713039        1.6361805005
H                -1.8197234838       -0.1853918417        1.4469408593
H                -1.4128937103       -0.6442862623       -0.2819480578
H                -1.5063287828       -1.9188396740        1.0130770182
H                 1.4407046375        0.6137801845        0.2132930214
H                 0.7133902179        2.5413069687        1.4466634200
H                -1.1911531778        0.7565965242        2.5982919578



