%nprocshared=20
%mem=5GB
#p m062x/cc-pVTZ opt=(calcfc,maxcycles=900,Tight) freq IOP(7/33=1,2/16=3) scf=(maxcycle=900) 

Gaussian input prepared by ASE

0 1
O                 0.1913439330       -0.7673223678        1.1334949530
O                 0.0759590406        0.7137935571       -1.3994893175
C                -1.2116577967       -0.8632605310        0.8770796932
C                 0.6760526293        0.5155454394        0.9123822467
C                 0.6407064629        1.1644529809       -0.2271973561
H                -1.7273757640       -1.1733043337        1.8311959327
H                -1.6398838576        0.1204932927        0.5313304125
H                -1.3916715683       -1.6191555202        0.1124176977
H                 1.1531331570        0.9581837363        1.7846744445
H                 1.0271383480        2.1570120387       -0.3186850870
H                 0.0066769736       -0.2983597163       -1.3304872437



