%nprocshared=20
%mem=5GB
#p m062x/cc-pVTZ opt=(calcfc,maxcycles=900,Tight) freq IOP(7/33=1,2/16=3) scf=(maxcycle=900) 

Gaussian input prepared by ASE

0 1
O                 0.2122573170       -0.7884191230        1.1159635219
O                -1.3982216220        1.7246061729        0.2789139420
C                -1.1875146811       -0.9839645301        0.9020310158
C                 0.6155758178        0.5253372754        0.9135741137
C                -0.0574076684        1.5962226562        0.5653360508
H                -1.4464149520       -2.0417355780        1.1961756058
H                -1.7744813990       -0.2610017903        1.5372370130
H                -1.4312273273       -0.8189294876       -0.1476631020
H                 1.6856445465        0.6070980278        1.0943951999
H                 0.4547508825        2.5295362834        0.4679071942
H                -1.7611177186        0.7863159413        0.1308146361



