%nprocshared=20
%mem=5GB
#p m062x/cc-pVTZ opt=(calcfc,maxcycles=900,Tight) freq IOP(7/33=1,2/16=3) scf=(maxcycle=900) 

Gaussian input prepared by ASE

0 1
O                 0.2070655485       -0.7227398674        1.0960794251
O                 2.5043315414        2.1146911670        0.9658145103
C                -1.1934400463       -0.8357993127        0.8330805457
C                 0.6738491437        0.5728258978        0.9138554328
C                 1.9394447370        0.8656754100        1.0968280473
H                -1.7847755487       -0.1390604786        1.4943726904
H                -1.4218690065       -0.6062697436       -0.2466546519
H                -1.4955741330       -1.8613669988        1.0461910219
H                -0.0776280403        1.2982365880        0.6080948362
H                 2.6684447479        0.1496289158        1.4110087153
H                 1.8778053450        2.6800729173        0.3985192241



