%nprocshared=20
%mem=5GB
#p m062x/cc-pVTZ opt=(calcfc,maxcycles=900,Tight) freq IOP(7/33=1,2/16=3) scf=(maxcycle=900) 

Gaussian input prepared by ASE

0 1
O                 0.2088266618       -0.7862737222        1.1114005235
O                -1.3925902911        1.7534004898        0.2797599465
C                -1.1838063020       -0.9667156596        0.8442284712
C                 0.6134874698        0.5277105470        0.9132134135
C                -0.0543545295        1.6025575022        0.5672898570
H                -1.7781029718       -0.2369583343        1.4660770817
H                -1.3852360197       -0.7780175363       -0.2487083052
H                -1.4607877995       -1.9848632565        1.1183577853
H                 1.6837599216        0.6043470352        1.0950702186
H                 0.4694792807        2.5293280343        0.4694756955
H                -1.7691510824        0.8196489722        0.1371920196



