%nprocshared=20
%mem=5GB
#p m062x/cc-pVTZ opt=(calcfc,maxcycles=900,Tight) freq IOP(7/33=1,2/16=3) scf=(maxcycle=900) 

Gaussian input prepared by ASE

0 1
O                 0.1865862298       -0.7547752741        1.2033817371
O                 1.4085343410        0.8148546834        3.2104544845
C                -1.1940803718       -0.8515082336        0.8459335035
C                 0.6612000053        0.5300850124        0.9721697817
C                 1.2810449690        1.2194528599        1.9003595316
H                -1.8047878829       -0.1453527378        1.4790296508
H                -1.3787269626       -0.6039938975       -0.2381947176
H                -1.5228198534       -1.8761669974        1.0205614828
H                 0.5289690536        0.9234212551       -0.0339265088
H                 1.7154481994        2.1771671935        1.7081352391
H                 0.9115830363       -0.0687094399        3.2902628847



