%nprocshared=20
%mem=5GB
#p m062x/cc-pVTZ opt=(calcfc,maxcycles=900,Tight) freq IOP(7/33=1,2/16=3) scf=(maxcycle=900) 

Gaussian input prepared by ASE

0 1
O                 0.2188511227       -0.7858344240        1.1403600910
O                 2.9291320607       -0.0216888226        1.5878298411
C                -1.1805860846       -0.8472404799        0.8554538447
C                 0.6966114280        0.5024632262        0.9363566228
C                 1.9508239674        0.8335704600        1.1320372962
H                -1.7544421966       -0.2135721841        1.5913775049
H                -1.3867142781       -0.4733833454       -0.1878264249
H                -1.4919208021       -1.8884534681        0.9416882167
H                -0.0417632461        1.2370941877        0.6208437688
H                 2.3127704298        1.8227364507        0.9492300445
H                 2.4672495958       -0.9038954148        1.7937221851



