%nprocshared=20
%mem=5GB
#p m062x/cc-pVTZ opt=(calcfc,maxcycles=900,Tight) freq IOP(7/33=1,2/16=3) scf=(maxcycle=900) 

Gaussian input prepared by ASE

0 1
O                 0.2005561341       -0.7193748847        1.0970724294
O                 0.4632219451        2.8892675314        0.3700458428
C                -1.2038806751       -0.8735034535        0.8798895500
C                 0.6934555116        0.5676532730        0.9233143073
C                -0.0144100351        1.6125560410        0.5654364047
H                -1.6960031510       -1.2016818131        1.8403813059
H                -1.6879769493        0.0815238294        0.5273765771
H                -1.3648036704       -1.6499130355        0.1317036702
H                 1.7610664580        0.5855191292        1.1338276041
H                -1.0606879658        1.5566255809        0.3531927584
H                 1.3534719681        2.9649981788        0.8555716460



