%nprocshared=20
%mem=5GB
#p m062x/cc-pVTZ opt=(calcfc,maxcycles=900,Tight) freq IOP(7/33=1,2/16=3) scf=(maxcycle=900) 

Gaussian input prepared by ASE

0 1
O                 0.2532180225       -0.8131117686        1.0388465507
O                 2.3475616251       -0.0972411570       -0.6874329818
C                -1.1632649260       -0.9146252047        0.8756354948
C                 0.6724702883        0.5020780560        0.8836485388
C                 1.6484323348        0.8189516381        0.0662984078
H                -1.3734497472       -1.7104832729        0.1043623550
H                -1.6553988507       -1.2320335466        1.8388321802
H                -1.5819608566        0.0406307766        0.5583503110
H                 0.1818321339        1.2475184151        1.5065618895
H                 1.9939006580        1.8242256793       -0.0474945176
H                 1.9622925408       -1.0106986798       -0.4612060456



