%nprocshared=20
%mem=5GB
#p m062x/cc-pVTZ opt=(calcfc,maxcycles=900,Tight) freq IOP(7/33=1,2/16=3) scf=(maxcycle=900) 

Gaussian input prepared by ASE

0 1
O                 0.1916656450       -0.7583239877        1.0621807837
O                -0.8021493220        1.5768720258        2.4962410039
C                -1.2136202844       -0.8733633186        0.8270123783
C                 0.6734921608        0.5382417326        0.9343382961
C                 0.2606463904        1.5772753708        1.6205886065
H                -1.6585062954        0.0940337734        0.4546559848
H                -1.3823002194       -1.6708857217        0.0484259630
H                -1.7208611762       -1.1986589196        1.7355164287
H                 1.5005968686        0.6246402072        0.2322975026
H                 0.7022839688        2.5433797543        1.5002903954
H                -1.1513572679        0.6222881911        2.5252074187



