%nprocshared=20
%mem=5GB
#p m062x/cc-pVTZ opt=(calcfc,maxcycles=900,Tight) freq IOP(7/33=1,2/16=3) scf=(maxcycle=900) 

Gaussian input prepared by ASE

0 1
O                 0.2080776037       -0.7798158395        1.0937601309
O                -1.3815200071        1.7862299931        0.2773762327
C                -1.1851593378       -0.9757457120        0.8410368041
C                 0.6168481929        0.5353096264        0.9122807265
C                -0.0477853798        1.6145692824        0.5740015087
H                -1.8091187356       -0.3169239124        1.5111550669
H                -1.4199847996       -0.7129958508       -0.2297158391
H                -1.4117101653       -2.0235422117        1.0392472423
H                 1.6884673612        0.6089859134        1.0873016763
H                 0.4988548693        2.5293503553        0.4889537771
H                -1.7848657671        0.8589316763        0.1703922638



