%nprocshared=20
%mem=5GB
#p m062x/cc-pVTZ opt=(calcfc,maxcycles=900,Tight) freq IOP(7/33=1,2/16=3) scf=(maxcycle=900) 

Gaussian input prepared by ASE

0 1
O                 0.2189014172       -0.7384125209        1.0944119708
O                 0.7429522919        2.8779204986        1.4748074171
C                -1.1778956747       -0.8963558648        0.8348381772
C                 0.6874302421        0.5538777927        0.8942878955
C                 0.2940038218        1.5827936019        1.6066922255
H                -1.4160830812       -0.6868066176       -0.2476524012
H                -1.4515115669       -1.9664795355        1.0599190139
H                -1.7860298529       -0.2447598719        1.4626005871
H                 1.4973591657        0.5915767066        0.1683250172
H                -0.4815636956        1.5229261113        2.3400298010
H                 1.6403270117        2.8472337096        0.9975313197



