%nprocshared=20
%mem=5GB
#p m062x/cc-pVTZ opt=(calcfc,maxcycles=900,Tight) freq IOP(7/33=1,2/16=3) scf=(maxcycle=900) 

Gaussian input prepared by ASE

0 1
O                 0.2424892329       -0.8020702659        1.0396167797
O                 2.3500217536       -0.0938165685       -0.6906565761
C                -1.1716601452       -0.8573071129        0.8383776257
C                 0.6738863498        0.5083542978        0.8775453433
C                 1.6576458394        0.8228769931        0.0686790004
H                -1.7180742817       -0.1408907872        1.5170595981
H                -1.4218480959       -0.6023707139       -0.2307833219
H                -1.5144909156       -1.8663528987        1.0681249324
H                 0.2007041648        1.2535235076        1.5141375508
H                 2.0145885443        1.8238989768       -0.0471656528
H                 1.9629962246       -1.0069970300       -0.4663170463



