%nprocshared=20
%mem=5GB
#p m062x/cc-pVTZ opt=(calcfc,maxcycles=900,Tight) freq IOP(7/33=1,2/16=3) scf=(maxcycle=900) 

Gaussian input prepared by ASE

0 1
O                 0.2327743326       -0.7951035257        1.1541391836
O                 2.9336881212       -0.0230419068        1.5773242215
C                -1.1715220548       -0.8754307307        0.8994512048
C                 0.6948324238        0.4970886671        0.9389071761
C                 1.9524175908        0.8258463227        1.1160228773
H                -1.5071521714       -1.9297725810        1.1188724150
H                -1.7408035894       -0.1687939317        1.5682371785
H                -1.4066122070       -0.6357557510       -0.1377463099
H                -0.0549016174        1.2253369850        0.6356227800
H                 2.2958463074        1.8229980575        0.9410422368
H                 2.4732524140       -0.8967702464        1.8194260350



