%nprocshared=20
%mem=5GB
#p m062x/cc-pVTZ opt=(calcfc,maxcycles=900,Tight) freq IOP(7/33=1,2/16=3) scf=(maxcycle=900) 

Gaussian input prepared by ASE

0 1
O                 0.1915836336       -0.7840481046        1.1009091368
O                -1.3739627643        1.8422313205        0.2857054002
C                -1.1985854604       -1.0872036435        0.9634559477
C                 0.5809575154        0.5374405995        0.9230363030
C                -0.0439895885        1.6383004005        0.5787677510
H                -1.3190916578       -1.8792126711        0.1693338308
H                -1.5721783341       -1.5265311011        1.9320174893
H                -1.8063664838       -0.2191181186        0.7074873775
H                 1.6556065366        0.5976771854        1.0840617823
H                 0.5198979118        2.5457737015        0.5414021919
H                -1.6748220698        1.0511649559       -0.2779551582



