%nprocshared=20
%mem=5GB
#p m062x/cc-pVTZ opt=(calcfc,maxcycles=900,Tight) freq IOP(7/33=1,2/16=3) scf=(maxcycle=900) 

Gaussian input prepared by ASE

0 1
C                 1.3759815261       -1.1768680897        0.5024205681
C                 0.1564941432       -0.4359940765        0.9336047163
C                -0.6350658909       -1.1221700934        2.0187670066
C                 2.1398709694       -0.4839449688       -0.5752419426
C                -0.7676949144       -0.2948810393        3.2756302064
C                 2.3351556310       -1.2678911653       -1.8068585558
C                -1.4326129157        1.0351366096        3.0330132753
H                 3.1430217346       -0.1772362407       -0.1644451090
H                 1.6367111643        0.4791984913       -0.8300752326
H                 1.0789299242       -2.1954424251        0.1740257309
H                 2.0370363096       -1.3194401569        1.3818087980
H                -0.4890291218       -0.2583198235        0.0592953865
H                 0.4540626244        0.5768722868        1.2782933137
H                -0.1726587378       -2.0906862347        2.2742658299
H                -1.6519196102       -1.3599005715        1.6437503492
H                -1.3445560113       -0.8820005656        4.0372352726
H                 0.2358297955       -0.1391683861        3.7068516069
H                 1.8843135215       -2.2751947147       -1.7296569260
H                 1.8551618052       -0.7714222723       -2.7016548989
H                 3.4132477449       -1.3965475026       -2.0406474367
H                -2.2265405662        0.9464060579        2.2904610583
H                -0.6810642753        1.7846148258        2.6597618526
H                -1.8888318437        1.4523136408        3.9762585851



