%nprocshared=20
%mem=5GB
#p m062x/cc-pVTZ opt=(calcfc,maxcycles=900,Tight) freq IOP(7/33=1,2/16=3) scf=(maxcycle=900) 

Gaussian input prepared by ASE

0 1
C                 1.2519616886       -1.2749200462        0.3688802028
C                 0.1333870800       -0.4464845260        0.9022177917
C                 0.2073392172       -0.0851509000        2.3647331257
C                 2.0861260091       -0.5452966945       -0.6295413871
C                 1.4497364892       -0.5137791899        3.1093333861
C                 3.3408817326       -1.2065213261       -1.0269797861
C                 2.7232063621        0.1363739347        2.6344636491
H                 2.3198153914        0.4711183846       -0.2036007815
H                 1.4602957461       -0.3533856615       -1.5335666949
H                 0.8446790705       -2.2024692112       -0.0864767073
H                 1.9043192242       -1.6123570188        1.2002704933
H                -0.8208908052       -0.9671062244        0.7261723572
H                 0.0649710001        0.4879378431        0.3060386440
H                -0.6586510284       -0.5260356177        2.8870406024
H                 0.1036959902        1.0144714201        2.4707217786
H                 1.3042657640       -0.2757339823        4.1954701580
H                 1.5498825041       -1.6106668375        3.0455491075
H                 3.5630100062       -2.1110136694       -0.4299607153
H                 3.3098595503       -1.5315528463       -2.1090740819
H                 4.2068811519       -0.5193153936       -0.9207474368
H                 2.5563110496        1.1596690865        2.2959507144
H                 3.1726597367       -0.4476956961        1.7843378287
H                 3.4937214108        0.1702031439        3.4572918477



