%nprocshared=20
%mem=5GB
#p m062x/cc-pVTZ opt=(calcfc,maxcycles=900,Tight) freq IOP(7/33=1,2/16=3) scf=(maxcycle=900) 

Gaussian input prepared by ASE

0 1
C                 1.3623029860       -1.1255896752        0.4720600564
C                 0.1001832034       -0.4561978877        0.8974208903
C                -0.9597326728       -0.3020006139       -0.1645506471
C                 2.2076303441       -0.4752623506       -0.5707831957
C                -2.1905336942        0.4396053438        0.3011232615
C                 1.7819822741        0.8336199212       -1.0954146274
C                -2.3886286255        1.7820128320       -0.3535723961
H                 2.3340083955       -1.1916511999       -1.4309874417
H                 3.2402299903       -0.3754492210       -0.1590424645
H                 1.1297501700       -2.1628055174        0.1500678445
H                 1.9814178822       -1.2441708069        1.3849013024
H                 0.3299777329        0.5335392172        1.3220385624
H                -0.3193745341       -1.0479461342        1.7382899751
H                -1.2609477766       -1.2955637822       -0.5376796218
H                -0.5115917297        0.2237618171       -1.0328180720
H                -3.0953859183       -0.1916963681        0.1005716693
H                -2.1661500216        0.5817164611        1.3949559895
H                 0.9347405427        1.2695002832       -0.5332145753
H                 2.6263942128        1.5837595264       -1.0530474185
H                 1.4831094492        0.7626552925       -2.1627155952
H                -2.0835473136        1.7661084461       -1.4005921971
H                -1.7975283468        2.5818948849        0.1724016925
H                -3.4732133663        2.0877257662       -0.3077505470



