%nprocshared=20
%mem=5GB
#p m062x/cc-pVTZ opt=(calcfc,maxcycles=900,Tight) freq IOP(7/33=1,2/16=3) scf=(maxcycle=900) 

Gaussian input prepared by ASE

0 1
C                 1.3848807713       -1.1472633656        0.4695449194
C                 0.0819837164       -0.5046700478        0.8034560484
C                -0.1762018628        0.8803884139        0.2649996673
C                 2.2035025633       -0.5404099425       -0.6197728968
C                -0.1807760825        2.0261183174        1.2493699252
C                 2.7418865874        0.8003606446       -0.3333045817
C                -0.0251327985        1.6786379974        2.7070936526
H                 1.6080015484       -0.5226586422       -1.5759105295
H                 3.0491029721       -1.2383946781       -0.8284170373
H                 1.1854703873       -2.2031810313        0.1887427075
H                 2.0131106411       -1.2062040780        1.3819577115
H                -0.0364158419       -0.4979254604        1.8982716882
H                -0.7317198890       -1.1640393655        0.4341674815
H                -1.1484330104        0.8698832373       -0.2563253531
H                 0.5660800490        1.1103052494       -0.5270234209
H                 0.6373560424        2.7440203815        0.9795611178
H                -1.1179508765        2.5952773414        1.1268073659
H                 2.4589707796        1.1587332054        0.6743694198
H                 3.8711559701        0.8119762968       -0.3796906568
H                 2.3840187614        1.5509361445       -1.0695513732
H                 0.7670252212        0.9460384464        2.8663468781
H                -0.9806036667        1.2676132853        3.1360385046
H                 0.2348651299        2.6074272429        3.2915897729



