%nprocshared=20
%mem=5GB
#p m062x/cc-pVTZ opt=(calcfc,maxcycles=900,Tight) freq IOP(7/33=1,2/16=3) scf=(maxcycle=900) 

Gaussian input prepared by ASE

0 1
C                 1.3887780331       -1.1571982665        0.5289823169
C                 0.1616825638       -0.4247725767        0.9529550378
C                -0.6665195331       -1.1451317079        1.9874336595
C                 2.1427353924       -0.5050783175       -0.5806635240
C                -1.8798190486       -0.3436428895        2.3963623813
C                 3.5304661344       -0.1128968696       -0.2806896587
C                -1.9024907052        0.0312791755        3.8554186897
H                 1.5814060474        0.4015130529       -0.9441703240
H                 2.1473583707       -1.1934303639       -1.4592448853
H                 1.0987890122       -2.1835121377        0.2188811954
H                 2.0459013916       -1.2980644216        1.4115861340
H                -0.4678241831       -0.2246022526        0.0718544039
H                 0.4389146156        0.5712558202        1.3583256362
H                -0.0416766802       -1.3730818896        2.8676232209
H                -0.9845484859       -2.1319076641        1.5921166255
H                -1.9238410829        0.5912519326        1.7786617482
H                -2.8034381601       -0.8927305173        2.1459813038
H                 3.8227182296       -0.3237730876        0.7652544476
H                 4.2571527788       -0.6592435190       -0.9522310123
H                 3.6963254594        0.9706554905       -0.4592877189
H                -0.8967280429        0.2109275951        4.2371855458
H                -2.3671852653       -0.7785394543        4.4832023569
H                -2.5036113040        0.9703016955        4.0250501510



