%nprocshared=20
%mem=5GB
#p m062x/cc-pVTZ opt=(calcfc,maxcycles=900,Tight) freq IOP(7/33=1,2/16=3) scf=(maxcycle=900) 

Gaussian input prepared by ASE

0 1
C                 1.3723203339       -1.1542055607        0.5153823584
C                 0.1478587620       -0.4126676731        0.9310492564
C                 0.0785928070       -0.0673190297        2.3976502765
C                 2.1409780551       -0.4902109910       -0.5770015206
C                -1.1814303735        0.6974006670        2.7281772951
C                 2.3368616730       -1.2746899293       -1.8081837263
C                -1.2899986452        1.0845172427        4.1801688782
H                 3.1486375242       -0.1892118557       -0.1730737363
H                 1.6411910472        0.4745391478       -0.8323938393
H                 1.0901987355       -2.1838163167        0.2089747951
H                 2.0343677817       -1.3025909743        1.3930604463
H                -0.7520170452       -0.9907440526        0.6688728635
H                 0.0757607136        0.5304445160        0.3491585706
H                 0.9604694122        0.5270263692        2.6911988073
H                 0.1222464804       -0.9972443988        3.0013703479
H                -1.2209765747        1.6208092390        2.0931394640
H                -2.0595399729        0.0919731621        2.4459695033
H                 1.8968379963       -2.2878233073       -1.7463851630
H                 1.8666423159       -0.7575411955       -2.6964330568
H                 3.4143643562       -1.4003309551       -2.0462900058
H                -0.3123899385        1.3086950881        4.6086587033
H                -1.7417769581        0.2501493876        4.7848061399
H                -1.9436371330        1.9954992211        4.3016294159



