%nprocshared=20
%mem=5GB
#p m062x/cc-pVTZ opt=(calcfc,maxcycles=900,Tight) freq IOP(7/33=1,2/16=3) scf=(maxcycle=900) 

Gaussian input prepared by ASE

0 1
C                 1.4055097371       -1.1702510259        0.5137742273
C                 0.1920616029       -0.4146088243        0.9362810778
C                -0.6651962301       -1.1025906990        1.9691276094
C                 2.1988407708       -0.5221772029       -0.5705007429
C                -1.9067385307       -0.3349460515        2.3577111279
C                 1.6538284500        0.7305068819       -1.1212560188
C                -2.0971439127        0.9900846565        1.6663607947
H                 2.3313512346       -1.2644863518       -1.4074916894
H                 3.2372396851       -0.3437488706       -0.2021990390
H                 1.1127608224       -2.1918718191        0.1910273794
H                 2.0571984999       -1.3262512257        1.3978610863
H                -0.4321646486       -0.2089355713        0.0526944494
H                 0.5137771731        0.5729282926        1.3293778021
H                -0.0605243505       -1.2931628086        2.8719995433
H                -0.9676984946       -2.1016346898        1.5928986305
H                -2.8094586222       -0.9694080289        2.1575242757
H                -1.9071053441       -0.1585125517        3.4468076597
H                 0.6917202096        1.0034106218       -0.6482333742
H                 2.3642075850        1.5949897398       -0.9613597934
H                 1.4687133633        0.6578179118       -2.2139321000
H                -1.8159370936        0.9338650580        0.6140585084
H                -1.4731227286        1.7902481498        2.1523603068
H                -3.1774042596        1.3079093308        1.7288840651



