%nprocshared=20
%mem=5GB
#p m062x/cc-pVTZ opt=(calcfc,maxcycles=900,Tight) freq IOP(7/33=1,2/16=3) scf=(maxcycle=900) 

Gaussian input prepared by ASE

0 1
C                 1.0360544853       -0.9585033979        0.8442383669
C                -0.2147778982       -0.4272827607        0.2317136466
C                -0.1610686951        0.9746154051       -0.3221625708
C                 2.3244877472       -0.3564673114        0.3942180337
C                 0.4439904241        1.0789935540       -1.7022753938
C                 2.8219809765       -0.7958000625       -0.9207247181
C                 0.1560490648       -0.0801201168       -2.6206822437
H                 3.1001104700       -0.5841254389        1.1788943421
H                 2.2314311758        0.7557484594        0.4026840635
H                 1.0703722688       -2.0574100441        0.6867487715
H                 0.9764681902       -0.8357921081        1.9451631113
H                -1.0213794447       -0.4752599843        0.9798963523
H                -0.5459944090       -1.1028397986       -0.5850934368
H                 0.3925341577        1.6369383458        0.3648423372
H                -1.1966247370        1.3713635824       -0.3590316358
H                 0.0777538864        2.0263276754       -2.1776165353
H                 1.5398581801        1.1736010111       -1.6163483294
H                 2.2821322786       -1.6828606388       -1.3022559192
H                 2.7071890303        0.0216400431       -1.6928324908
H                 3.9017444048       -1.0503405363       -0.8676927820
H                -0.9110547901       -0.2167707859       -2.8001090464
H                 0.5641282658       -1.0385688721       -2.1955858675
H                 0.6616924810        0.1005281082       -3.6124357688



