%nprocshared=20
%mem=5GB
#p m062x/cc-pVTZ opt=(calcfc,maxcycles=900,Tight) freq IOP(7/33=1,2/16=3) scf=(maxcycle=900) 

Gaussian input prepared by ASE

0 1
C                 1.3935541626       -1.1214588584        0.5193636911
C                 0.1358891339       -0.4144888097        0.8941110405
C                 0.3164211709        0.9506217126        1.5096298910
C                 2.1896347328       -0.5181638639       -0.5884796621
C                -0.9783582381        1.6336769589        1.8820336403
C                 2.7413997151        0.8288812758       -0.3635085176
C                -1.0864708294        1.9813118646        3.3440143207
H                 1.5499348359       -0.5035006436       -1.5156823217
H                 3.0243854551       -1.2211369425       -0.8225206894
H                 1.1176838081       -2.1515884389        0.2090330692
H                 2.0263840070       -1.2404126504        1.4227020903
H                -0.4149917127       -1.0574661504        1.5982386299
H                -0.5080456996       -0.3217240663       -0.0058879220
H                 0.8755419704        1.5891810112        0.8048253125
H                 0.9679429617        0.8664767741        2.4038243584
H                -1.0893344668        2.5696429705        1.2744381812
H                -1.8377333316        1.0069332680        1.5889006250
H                 2.5094779504        1.2160973345        0.6465187885
H                 3.8664004498        0.8482546507       -0.4709047431
H                 2.3342125566        1.5631885305       -1.0904774122
H                -0.1169978954        2.2697268345        3.7520793343
H                -1.4660726757        1.1015251713        3.9337069462
H                -1.8078672116        2.8313141702        3.5142125586



