%nprocshared=20
%mem=5GB
#p m062x/cc-pVTZ opt=(calcfc,maxcycles=900,Tight) freq IOP(7/33=1,2/16=3) scf=(maxcycle=900) 

Gaussian input prepared by ASE

0 1
C                 1.4351196650       -1.1292315515        0.6637788200
C                 0.3267731110       -0.1389681386        0.5501573455
C                -0.7157788255       -0.4817450661       -0.4845268806
C                 2.7080518483       -0.7355038108       -0.0067792633
C                -0.2548761201       -0.5655165654       -1.9205818141
C                 3.6555366158       -0.0255239099        0.8694560792
C                 0.7144534535       -1.6758484203       -2.2328144509
H                 2.4819725459       -0.1043107493       -0.9121074955
H                 3.2122796539       -1.6524461622       -0.3950139401
H                 1.0963362936       -2.0995219413        0.2426625810
H                 1.6420760068       -1.3296856097        1.7350542855
H                 0.7230385855        0.8686957462        0.3494775033
H                -0.1936890642       -0.0671597165        1.5285326184
H                -1.5187871985        0.2722407982       -0.4228307760
H                -1.1847329315       -1.4486500491       -0.2082633104
H                -1.1676926511       -0.6985294196       -2.5582289748
H                 0.1828285440        0.3997888905       -2.2269478923
H                 4.1282388056       -0.7248788856        1.5845325770
H                 4.4843846143        0.4564205542        0.2708940866
H                 3.1613572276        0.7798715865        1.4530802107
H                 0.7732974776       -2.4031712675       -1.4221869922
H                 1.7530872712       -1.2809132332       -2.4092388563
H                 0.4124707963       -2.2286521012       -3.1682815348



