%nprocshared=20
%mem=5GB
#p m062x/cc-pVTZ opt=(calcfc,maxcycles=900,Tight) freq IOP(7/33=1,2/16=3) scf=(maxcycle=900) 

Gaussian input prepared by ASE

0 1
C                 1.4002497833       -1.1277542448        0.4724438615
C                 0.1557320459       -0.4083196452        0.8668459512
C                -0.1389675319        0.9392036958        0.2566697354
C                 2.2258882374       -0.6207631320       -0.6617109669
C                -0.2515594531        2.0669266443        1.2553021757
C                 3.5817335887       -0.1802011966       -0.2913384729
C                -0.4314553457        3.4006742288        0.5780424627
H                 1.6908770268        0.2137262911       -1.1969923389
H                 2.3097182422       -1.4277738031       -1.4281712901
H                 1.1180124078       -2.1770983464        0.2426711034
H                 2.0464589685       -1.2132594054        1.3700776601
H                 0.1464407835       -0.3107677343        1.9636971385
H                -0.7067108207       -1.0721249601        0.6459154062
H                -1.0928943642        0.8805481736       -0.2944261439
H                 0.6264341325        1.2039063759       -0.5017744242
H                -1.1200990670        1.8734933876        1.9377557303
H                 0.6456485853        2.1004176820        1.8965168482
H                 3.8266768824       -0.4052533600        0.7637603124
H                 4.3649226595       -0.6868118572       -0.9296929573
H                 3.7212467576        0.9127568046       -0.4308776552
H                -1.0403149959        3.3071700079       -0.3220269274
H                 0.5671806808        3.8187214801        0.2717384271
H                -0.9229283082        4.1513355794        1.2613037332



