%nprocshared=20
%mem=5GB
#p m062x/cc-pVTZ opt=(calcfc,maxcycles=900,Tight) freq IOP(7/33=1,2/16=3) scf=(maxcycle=900) 

Gaussian input prepared by ASE

0 1
C                 1.3495621105       -1.1133641981        0.4779211599
C                 0.1216890085       -0.3914319567        0.9173583387
C                 0.3843750195        0.9341313308        1.5873285174
C                 2.1675307285       -0.5132128202       -0.6155922984
C                 1.2513675210        0.8581312842        2.8219340152
C                 1.6590837296        0.7208535078       -1.2386084840
C                 2.5696893667        1.5753229675        2.6893087131
H                 2.3218776777       -1.2953035974       -1.4116116295
H                 3.1971803204       -0.3317658034       -0.2248829205
H                 1.0500050903       -2.1409573652        0.1814513052
H                 1.9932731678       -1.2507081124        1.3709030208
H                -0.4361944389       -1.0441671365        1.6068422574
H                -0.5538585252       -0.2107606991        0.0546597085
H                -0.5833427245        1.3922048171        1.8534386246
H                 0.8476384942        1.6046867427        0.8344094297
H                 0.6917492400        1.3008202729        3.6870202414
H                 1.4503837535       -0.1951355887        3.0832415039
H                 0.6596869649        0.9979408033       -0.8535008660
H                 2.3533152055        1.5908807980       -1.0420605200
H                 1.5700739254        0.6174098021       -2.3408194232
H                 2.4737423687        2.4873426142        2.0988916084
H                 3.3302663400        0.9180478579        2.1839655841
H                 2.9794239731        1.8575478227        3.7014108736



