%nprocshared=20
%mem=5GB
#p m062x/cc-pVTZ opt=(calcfc,maxcycles=900,Tight) freq IOP(7/33=1,2/16=3) scf=(maxcycle=900) 

Gaussian input prepared by ASE

0 1
C                 1.4170931405       -1.0821585721        0.4447197262
C                 0.1643180874       -0.4170150237        0.9030888746
C                -1.0633023354       -1.2838830080        0.7747533559
C                 2.1466323671       -0.3958423284       -0.6606166708
C                -1.0506642467       -2.5905801053        1.5324377986
C                 3.3652890759       -1.1274576722       -1.0468834630
C                 0.1807799443       -2.8417286960        2.3633381895
H                 2.4060334314        0.6507762902       -0.3343709120
H                 1.4710168733       -0.2706380799       -1.5401749240
H                 1.1907303713       -2.1226624044        0.1289853889
H                 2.1158121941       -1.1926707592        1.2992503697
H                -0.0123575920        0.5084190846        0.3329637608
H                 0.2782755507       -0.1027552967        1.9621025764
H                -1.2255138215       -1.4962019371       -0.2956351932
H                -1.9445754204       -0.6908772110        1.0954504630
H                -1.9520292969       -2.6369630844        2.1979526411
H                -1.1706247074       -3.4206272031        0.8155755571
H                 3.5084876175       -2.0275063407       -0.4197585058
H                 3.3164956901       -1.4875093617       -2.1171721700
H                 4.2761388377       -0.4999135237       -0.9467168361
H                 0.5590695603       -1.9134930308        2.7932841586
H                 0.9995810954       -3.2840939536        1.7310904264
H                -0.0328454823       -3.5598181255        3.2063066636



