%nprocshared=20
%mem=5GB
#p m062x/cc-pVTZ opt=(calcfc,maxcycles=900,Tight) freq IOP(7/33=1,2/16=3) scf=(maxcycle=900) 

Gaussian input prepared by ASE

0 1
C                 1.2558025403       -1.2976597080        0.7579389500
C                 0.3197856522       -0.1519456519        0.9400796563
C                 0.3575139419        0.9146574363       -0.1257141504
C                 2.4022298105       -1.1183261088       -0.1793816965
C                 1.0600180497        2.1766551592        0.3164989949
C                 3.2266468513        0.0910583247       -0.0141150789
C                 1.6632561719        2.9719051885       -0.8120429976
H                 2.0102052846       -1.1499573525       -1.2350577715
H                 3.0544911279       -2.0185275527       -0.0796437689
H                 0.6836531284       -2.1818795808        0.4052680453
H                 1.6517945782       -1.5917174988        1.7516009657
H                 0.5166510388        0.3180921930        1.9162936051
H                -0.7153040433       -0.5464942768        1.0186684902
H                -0.6721995565        1.1813554185       -0.4184355838
H                 0.8363062903        0.5108212998       -1.0415847864
H                 0.3328555527        2.8252431174        0.8715563823
H                 1.8587058871        1.9323849989        1.0373942697
H                 3.3271904698        0.3846115585        1.0477684456
H                 4.2698941243       -0.0679961149       -0.4189270633
H                 2.8065587422        0.9550320122       -0.5714011346
H                 0.9127920176        3.2644981469       -1.5474142873
H                 2.4522786247        2.3598790820       -1.3304320348
H                 2.1639447026        3.9026639969       -0.4184910495



