%nprocshared=20
%mem=5GB
#p m062x/cc-pVTZ opt=(calcfc,maxcycles=900,Tight) freq IOP(7/33=1,2/16=3) scf=(maxcycle=900) 

Gaussian input prepared by ASE

0 1
C                 1.3769179123       -1.1471239766        0.5167399735
C                 0.1368328068       -0.4433445571        0.9513052849
C                -1.1220933042       -1.2244593563        0.6685567613
C                 2.1553076611       -0.4773534308       -0.5651763056
C                -2.0772178210       -0.4771336650       -0.2319676463
C                 1.4568470195       -0.3021581296       -1.8501068712
C                -3.3469021055       -1.2319600721       -0.5287247570
H                 3.0907295145       -1.0836233012       -0.7281442176
H                 2.5113668092        0.5119870463       -0.1907668726
H                 1.1195863838       -2.1766919132        0.1891016845
H                 2.0528805873       -1.2779907094        1.3865630820
H                 0.0745207690        0.5458338741        0.4713797999
H                 0.1912660726       -0.2321701629        2.0402028442
H                -1.6350708139       -1.4783797534        1.6116909227
H                -0.8662766513       -2.1982165805        0.2021883786
H                -2.3225095493        0.5071882363        0.2460100755
H                -1.5598647266       -0.2337662420       -1.1755662066
H                 0.4277141910       -0.7079655214       -1.8408807061
H                 1.3860124367        0.7904676819       -2.1306193091
H                 2.0039906106       -0.8038411872       -2.6762063207
H                -3.6699846141       -1.8273226634        0.3261080323
H                -3.2110344631       -1.9271728451       -1.4028407470
H                -4.1831540955       -0.5223343157       -0.7913994516



