%nprocshared=20
%mem=5GB
#p m062x/cc-pVTZ opt=(calcfc,maxcycles=900,Tight) freq IOP(7/33=1,2/16=3) scf=(maxcycle=900) 

Gaussian input prepared by ASE

0 1
C                 1.4053530934       -1.1618590503        0.5356152900
C                 0.1565070639       -0.4672055788        0.9596479531
C                -1.1162510889       -1.2181842176        0.6578205546
C                 2.1341450769       -0.5000801444       -0.5850706359
C                -2.0649974961       -0.4603781082       -0.2406853693
C                 3.5227823354       -0.1127237752       -0.2830295333
C                -2.4947446514        0.8656780862        0.3309948052
H                 1.5610592785        0.4066922061       -0.9292687069
H                 2.1351274992       -1.1813142294       -1.4691940866
H                 1.1521590321       -2.2012792189        0.2371609712
H                 2.0815891400       -1.2651324062        1.4089327026
H                 0.1145115571        0.5259358801        0.4857369382
H                 0.1995485326       -0.2601441822        2.0498444995
H                -1.6292496422       -1.4553558555        1.6052938463
H                -0.8783358683       -2.1889084504        0.1759122939
H                -1.5639622845       -0.2951297429       -1.2302191153
H                -2.9477682593       -1.0896533644       -0.4455965735
H                 3.7993483016       -0.3317070621        0.7655107503
H                 4.2607346757       -0.6653515543       -0.9369139354
H                 3.6910174635        0.9725900674       -0.4482055143
H                -1.6845146571        1.3150848485        0.9064415346
H                -3.3887578069        0.7527346960        1.0046741416
H                -2.7822526578        1.5891439662       -0.4849833603



