%nprocshared=20
%mem=5GB
#p m062x/cc-pVTZ opt=(calcfc,maxcycles=900,Tight) freq IOP(7/33=1,2/16=3) scf=(maxcycle=900) 

Gaussian input prepared by ASE

0 1
C                 1.3532582598       -1.1022030471        0.5004560188
C                 0.0956813762       -0.4447162983        0.9567181221
C                 0.0497261903       -0.1052575999        2.4256081530
C                 2.1594158551       -0.4771751324       -0.5878803526
C                -1.1913909797        0.6826572472        2.7727696487
C                 1.7110443217        0.7788587836       -1.2131234971
C                -1.2997586063        1.0852771067        4.2205540167
H                 2.2896303736       -1.2479877419       -1.3990695046
H                 3.1954542269       -0.3258663005       -0.2012471292
H                 1.0978407390       -2.1345872568        0.1802666471
H                 2.0184882309       -1.2526793260        1.3753673601
H                -0.7607348650       -1.1011148422        0.7367694843
H                -0.0934368566        0.4861430345        0.3814002128
H                 0.9422944139        0.4772752424        2.7103905153
H                 0.0887731167       -1.0373904985        3.0262314601
H                -1.2012913052        1.6081577394        2.1396257768
H                -2.0862104385        0.1028083289        2.4893379319
H                 0.7477733849        1.1517042981       -0.8169234661
H                 2.4671096461        1.6044515097       -1.0572459621
H                 1.5863811435        0.6603493270       -2.3103504111
H                -0.3284197615        1.3406568508        4.6458304620
H                -1.7399634469        0.2547031139        4.8387984027
H                -1.9773614394        1.9806164354        4.3259389631



