%nprocshared=20
%mem=5GB
#p m062x/cc-pVTZ opt=(calcfc,maxcycles=900,Tight) freq IOP(7/33=1,2/16=3) scf=(maxcycle=900) 

Gaussian input prepared by ASE

0 1
C                 1.3499279917       -1.1139199193        0.6197280864
C                 0.1425018114       -0.2753604945        0.8665147556
C                 0.4255158631        1.0511013102        1.5263512028
C                 2.1659404881       -0.7826943718       -0.5841985154
C                 1.1134151994        2.0669958298        0.6451840404
C                 1.4786856087       -0.0854013252       -1.6846758473
C                 0.2087197201        2.6218329397       -0.4242119300
H                 2.6028540137       -1.7449228086       -0.9745301009
H                 3.0482975385       -0.1768500421       -0.2677276578
H                 1.0225556441       -2.1731604916        0.5532957451
H                 2.0048209964       -1.0758725024        1.5143293532
H                -0.5445253681       -0.8409298924        1.5152135616
H                -0.3992945005       -0.1150890089       -0.0895319520
H                 1.0418621816        0.8787760193        2.4249861397
H                -0.5329757509        1.4813333636        1.8831970604
H                 1.4827152626        2.9077732654        1.2887919234
H                 2.0048385884        1.6180481250        0.1750027244
H                 0.3900664054        0.0063640996       -1.5104160500
H                 1.8766204586        0.9640834533       -1.8179630747
H                 1.6198760454       -0.6092261871       -2.6537811433
H                -0.8396801802        2.4995190766       -0.1494848148
H                 0.3788689476        2.0976203934       -1.4050840046
H                 0.3934180381        3.7225409928       -0.5861144101



