%nprocshared=20
%mem=5GB
#p m062x/cc-pVTZ opt=(calcfc,maxcycles=900,Tight) freq IOP(7/33=1,2/16=3) scf=(maxcycle=900) 

Gaussian input prepared by ASE

0 1
C                 1.2638009982       -1.0243448332        0.3339760637
C                 0.0685399015       -0.2141149514        0.7038976761
C                 0.3454973115        0.8931902432        1.6898752667
C                 2.0636342525       -0.5658474922       -0.8386589919
C                 1.1850907291        2.0207350944        1.1372196400
C                 1.5525944933        0.5639652098       -1.6336110929
C                 0.4385362769        2.9153017793        0.1820585195
H                 2.2136618264       -1.4487479060       -1.5221166178
H                 3.0939004534       -0.3161136076       -0.4894603921
H                 0.9331170679       -2.0682601302        0.1483272260
H                 1.9403084108       -1.0948601418        1.2103374001
H                -0.6963320176       -0.8804837852        1.1323935975
H                -0.3904744447        0.2282056791       -0.2054503265
H                 0.8429962666        0.4695287416        2.5787674209
H                -0.6208302806        1.3068677026        2.0451592438
H                 1.5649421458        2.6434817861        1.9889354372
H                 2.0794102185        1.6130425553        0.6359815583
H                 0.6280875531        0.9999639184       -1.2104430605
H                 2.3106390423        1.4004955546       -1.6894803501
H                 1.3256686088        0.2662432741       -2.6792489805
H                -0.2809674860        3.5413250378        0.7111967197
H                -0.1092914704        2.3084850074       -0.5909342001
H                 1.1541983806        3.5935122444       -0.3654288487



