%nprocshared=20
%mem=5GB
#p m062x/cc-pVTZ opt=(calcfc,maxcycles=900,Tight) freq IOP(7/33=1,2/16=3) scf=(maxcycle=900) 

Gaussian input prepared by ASE

0 1
C                 1.3674968109       -1.1444547003        0.5120614769
C                 0.1399333865       -0.4181824979        0.9451668647
C                -0.6521871644       -1.1298509443        2.0133686552
C                 2.1596254250       -0.4953085553       -0.5724511146
C                -0.7403454868       -0.3089658921        3.2783107809
C                 1.6321463296        0.7616885267       -1.1304039442
C                -1.5175853534       -0.9691016651        4.3873846382
H                 2.2913979527       -1.2344130590       -1.4123893704
H                 3.1956722761       -0.3226687186       -0.1948832015
H                 1.0856292616       -2.1704004994        0.1933729114
H                 2.0182125058       -1.2895025022        1.3987260695
H                -0.5051850773       -0.2219252398        0.0745403739
H                 0.4375543147        0.5828139013        1.3229015493
H                -0.2032133208       -2.1104154821        2.2458320179
H                -1.6760784300       -1.3543903008        1.6495369446
H                 0.3012296958       -0.0865940077        3.6292982793
H                -1.1924355353        0.6688663255        3.0401534541
H                 0.6774253618        1.0604903413       -0.6580645648
H                 2.3621300617        1.6117835996       -0.9820865557
H                 1.4520667396        0.6836146245       -2.2235499120
H                -1.3787916057       -2.0509117981        4.3884578487
H                -2.6195741103       -0.7657566546        4.2867309429
H                -1.1943099963       -0.5804824206        5.3955275975



