%nprocshared=20
%mem=5GB
#p m062x/cc-pVTZ opt=(calcfc,maxcycles=900,Tight) freq IOP(7/33=1,2/16=3) scf=(maxcycle=900) 

Gaussian input prepared by ASE

0 1
C                 1.3658819717       -1.1728991535        0.3089772813
C                 0.1786638258       -0.4605150460        0.8612322109
C                 0.4764144285        0.8504458547        1.5451240925
C                 2.1128221019       -0.4572338025       -0.7656992129
C                 1.2560592852        0.8098257813        2.8382623863
C                 3.3602375205       -1.1467333087       -1.1373609199
C                 1.5098721908       -0.5429724580        3.4509954462
H                 2.3344473095        0.5943581746       -0.4278052634
H                 1.4494747837       -0.3456269864       -1.6563559223
H                 1.0411072475       -2.1605445056       -0.0817330166
H                 2.0627801260       -1.3931017687        1.1435356381
H                -0.3493169816       -1.1308969771        1.5572994228
H                -0.5414108833       -0.2576705625        0.0404995937
H                -0.4878963053        1.3541749114        1.7281142184
H                 1.0191214165        1.5020270197        0.8295433000
H                 2.2424221718        1.3189565857        2.6789061185
H                 0.7301563924        1.4348496368        3.5799034702
H                 3.5315500369       -2.0402706133       -0.5079784869
H                 3.3455337951       -1.5023998228       -2.2101242028
H                 4.2469809782       -0.4876179705       -1.0244657861
H                 1.5677141406       -1.3308334455        2.6989931902
H                 0.7010975266       -0.8249517548        4.1805369452
H                 2.4904688902       -0.5325088995        4.0079557025



