%nprocshared=20
%mem=5GB
#p m062x/cc-pVTZ opt=(calcfc,maxcycles=900,Tight) freq IOP(7/33=1,2/16=3) scf=(maxcycle=900) 

Gaussian input prepared by ASE

0 1
C                 1.5056812508       -1.0496072142        0.4718292522
C                 0.1907420829       -0.4743390258        0.8742780639
C                -1.0386439797       -1.3311192413        0.7024654287
C                 2.2312684607       -0.3058448870       -0.5983888664
C                -0.8577735380       -2.7221186661        0.1420109492
C                 3.4482423449       -0.9809530511       -1.0808728061
C                -0.0896527069       -3.6646810688        1.0316695216
H                 2.5032219448        0.7145949073       -0.2061138754
H                 1.5446935127       -0.1067395401       -1.4555510573
H                 1.3799397698       -2.1087737923        0.1621007584
H                 2.1606700922       -1.0845184944        1.3664882377
H                 0.0204031746        0.4709007598        0.3355836848
H                 0.2466973134       -0.1814818339        1.9440253132
H                -1.7490569013       -0.8074922148        0.0404595694
H                -1.5584862329       -1.4138194054        1.6792302288
H                -1.8760673261       -3.1553903017       -0.0393003603
H                -0.3723827075       -2.6649490639       -0.8471237981
H                 3.6797376715       -1.8859817485       -0.4882412928
H                 3.3388026580       -1.3102693988       -2.1565631092
H                 4.3372281344       -0.3170876559       -1.0310802045
H                -0.3359878531       -3.5078871323        2.0825323468
H                 1.0179618663       -3.5168247978        0.9005662785
H                -0.3296415257       -4.7342561227        0.7665305561



