%nprocshared=20
%mem=5GB
#p m062x/cc-pVTZ opt=(calcfc,maxcycles=900,Tight) freq IOP(7/33=1,2/16=3) scf=(maxcycle=900) 

Gaussian input prepared by ASE

0 1
C                 1.3764383478       -1.1788492009        0.4275936472
C                 0.1903129532       -0.4071119312        0.8960930441
C                 0.4480979776        0.9461776783        1.5102071410
C                 2.0816465968       -0.5818055661       -0.7434085918
C                 1.8864197798        1.3634294320        1.7072708546
C                 3.3447295131       -1.2536135660       -1.0939549909
C                 2.3156399496        2.4827833940        0.7947235279
H                 2.2693770725        0.5115554379       -0.5473098319
H                 1.3920969864       -0.5985564855       -1.6209026723
H                 1.0396622147       -2.2022259286        0.1576706781
H                 2.0932036142       -1.3172855119        1.2628940846
H                -0.3576312142       -1.0192639272        1.6293817684
H                -0.5091010294       -0.2828970078        0.0424852690
H                -0.0546168671        0.9860129805        2.4914382419
H                -0.0669784051        1.7098789163        0.8916592454
H                 2.0275668999        1.6935682932        2.7696296277
H                 2.5726705839        0.5108794895        1.5677051018
H                 3.5207331176       -2.1524079846       -0.4734145295
H                 3.3493968984       -1.5973226857       -2.1706992440
H                 4.2210685530       -0.5858652647       -0.9538322118
H                 1.5806728354        3.2884233501        0.7761326120
H                 2.4445838605        2.1002639266       -0.2554725990
H                 3.2958637089        2.9194407671        1.1416757151



