%nprocshared=20
%mem=5GB
#p m062x/cc-pVTZ opt=(calcfc,maxcycles=900,Tight) freq IOP(7/33=1,2/16=3) scf=(maxcycle=900) 

Gaussian input prepared by ASE

0 1
C                 1.4355987710       -1.1655192138        0.5529923624
C                 0.1583931786       -0.4584059692        0.8541572406
C                -0.1407023361        0.8029109337        0.0830518304
C                 2.3545529760       -0.5406704528       -0.4420519658
C                -0.3387674259        0.6106384166       -1.4020421866
C                 2.4073261005       -1.2485974668       -1.7326493314
C                -0.4692392429        1.9018419562       -2.1673502255
H                 3.3877956272       -0.4814196497        0.0029589398
H                 2.0638517318        0.5229528025       -0.6151226956
H                 1.2033263095       -2.1935960914        0.2027296932
H                 1.9870861368       -1.3084642490        1.5048706542
H                 0.1433524436       -0.1956665426        1.9234687013
H                -0.6858112524       -1.1671363127        0.7189696717
H                 0.6730221581        1.5300524439        0.2450432243
H                -1.0512464929        1.2604262245        0.5220664738
H                 0.5285368710        0.0273358052       -1.8083199981
H                -1.2343078122       -0.0095282552       -1.5771446869
H                 1.9459606804       -2.2528110150       -1.6818926679
H                 1.8472298188       -0.6813905375       -2.5339634924
H                 3.4496054436       -1.3853516132       -2.0910407018
H                 0.0545913923        2.7237988676       -1.6778950983
H                -1.5504681199        2.1941321700       -2.2739810203
H                -0.0429481583        1.7893173491       -3.2053763446



