%nprocshared=20
%mem=5GB
#p m062x/cc-pVTZ opt=(calcfc,maxcycles=900,Tight) freq IOP(7/33=1,2/16=3) scf=(maxcycle=900) 

Gaussian input prepared by ASE

0 1
C                 1.3870484805       -1.1431869128        0.5223156061
C                 0.1610978844       -0.3998150757        0.9302457444
C                 0.0892111784       -0.0930565441        2.4052757491
C                 2.1510029256       -0.5079326474       -0.5902722080
C                -1.1112632540       -0.7042264428        3.0886755090
C                 3.5381717004       -0.1151505812       -0.2884904016
C                -0.7467333057       -1.6626087122        4.1925537688
H                 1.5874933287        0.3984902094       -0.9508138546
H                 2.1543099045       -1.2013715480       -1.4648502062
H                 1.0875339051       -2.1695454424        0.2215570852
H                 2.0423377991       -1.2867517675        1.4058476776
H                -0.7264477036       -0.9816486579        0.6362767973
H                 0.0783623957        0.5474248623        0.3565325419
H                 0.0827780062        0.9993406455        2.5593878334
H                 1.0193299340       -0.4430507676        2.8987612138
H                -1.7695935786        0.1066382796        3.4968665497
H                -1.7270594364       -1.2320615036        2.3407146943
H                 3.8249002386       -0.3252628563        0.7591348736
H                 4.2701802806       -0.6613211608       -0.9543710714
H                 3.6989168696        0.9701833880       -0.4608373364
H                 0.1469048949       -1.3406564218        4.7285906230
H                -0.5468015815       -2.6912733631        3.7829980074
H                -1.5825379811       -1.7611736198        4.9432864799



