%nprocshared=20
%mem=5GB
#p m062x/cc-pVTZ opt=(calcfc,maxcycles=900,Tight) freq IOP(7/33=1,2/16=3) scf=(maxcycle=900) 

Gaussian input prepared by ASE

0 1
C                 1.3855328249       -1.1472678043        0.5296352709
C                 0.1286441209       -0.4522622141        0.9285858513
C                -0.8193965174       -0.1940013465       -0.2157490133
C                 2.1619661798       -0.5073361776       -0.5715753259
C                -1.1281615165        1.2749562124       -0.3846590643
C                 2.6629363140        0.8560941578       -0.3272929789
C                -2.5858746019        1.6162349258       -0.2157588850
H                 1.5109348238       -0.5045490102       -1.4909697708
H                 3.0177246700       -1.1820925600       -0.8126901342
H                 1.1277057671       -2.1769204431        0.2026533883
H                 2.0278747473       -1.2681172677        1.4259812654
H                 0.3729370262        0.4975928919        1.4293667254
H                -0.3830739433       -1.0675136486        1.6985636400
H                -1.7501737631       -0.7672961011       -0.0670534074
H                -0.3850100560       -0.5923967286       -1.1558204370
H                -0.5269830778        1.8496547688        0.3675552630
H                -0.7786108374        1.6274812877       -1.3699511854
H                 2.3716862467        1.2612629772        0.6600725897
H                 3.7912542891        0.8874505684       -0.3860403417
H                 2.2933334650        1.5681734425       -1.0952963163
H                -3.0613518463        0.9710986199        0.5240374092
H                -3.1489864685        1.4977127787       -1.1825665733
H                -2.7126873479        2.6834678502        0.1260254221



