%nprocshared=20
%mem=5GB
#p m062x/cc-pVTZ opt=(calcfc,maxcycles=900,Tight) freq IOP(7/33=1,2/16=3) scf=(maxcycle=900) 

Gaussian input prepared by ASE

0 1
O                 1.2018857276       -2.9712399116        0.5447856302
O                 2.7113957095       -0.0966643349        2.2184989883
C                -0.1570385969       -3.0180826844        0.1639868711
C                -0.5385023286       -4.4950445299        0.0635804052
C                -0.4405960315       -2.2137546660       -1.0618684140
C                 1.6065796688       -1.6818619537        0.8048284260
C                 2.2724032723       -1.3674904355        1.8780951811
H                -0.7548244350       -2.5640652350        1.0023581835
H                 0.3942129084       -5.0968174988        0.0746907814
H                -1.1607519093       -4.8119966605        0.9202208351
H                -1.0986566537       -4.7344734450       -0.8806289290
H                -0.5636079045       -2.8546532992       -1.9842581857
H                 0.4036418307       -1.5144810415       -1.2360904567
H                -1.3742580643       -1.5935645103       -0.9469729863
H                 1.3747861771       -0.9689486013       -0.0024900238
H                 2.5234294433       -2.1059412851        2.6251553555
H                 2.2821554991        0.5445970729        1.5810671498



