%nprocshared=20
%mem=5GB
#p m062x/cc-pVTZ opt=(calcfc,maxcycles=900,Tight) freq IOP(7/33=1,2/16=3) scf=(maxcycle=900) 

Gaussian input prepared by ASE

0 1
O                 1.9114728997       -1.6257174942        3.2316135329
O                 2.2740277786       -1.1355891722       -0.3291266951
C                 1.7881322026       -0.8083201573        4.3763955760
C                 1.8215736506        0.7109484309        4.2099114738
C                 2.7680055160       -1.2530997265        5.4118128757
C                 2.0499101731       -1.0261022945        2.0006823027
C                 2.1185413246       -1.7355398656        0.9116275989
H                 0.7620512599       -1.0422151482        4.7748892927
H                 2.2127149832        1.0922642697        3.2435686003
H                 0.8054493953        1.1209024892        4.3545323159
H                 2.4688440804        1.1678904088        5.0067021361
H                 3.6290588886       -0.5306391202        5.5272409135
H                 3.1917342808       -2.2509823033        5.1735718491
H                 2.2781628021       -1.2983919906        6.4255013419
H                 2.1114042977        0.0738671255        1.9959391273
H                 2.0529744121       -2.8134987983        0.9003042021
H                 2.3448580451       -1.8682976191       -1.0072889952



