%nprocshared=20
%mem=5GB
#p m062x/cc-pVTZ opt=(calcfc,maxcycles=900,Tight) freq IOP(7/33=1,2/16=3) scf=(maxcycle=900) 

Gaussian input prepared by ASE

0 1
O                 0.9378077064        0.2756013641        3.1319852758
O                 2.3503601178       -2.1463861600        3.0686421581
C                 1.3666168318        1.5028298078        3.6832659131
C                 1.9293640749        1.2980206227        5.0898152610
C                 0.2580695769        2.5031733447        3.7057459478
C                 1.6571521502       -0.1397071367        2.0347353588
C                 2.2725636193       -1.2854608687        1.9840484841
H                 2.1927494714        1.9038787333        3.0328730847
H                 1.7426889883        0.2643105257        5.4487131674
H                 3.0181250135        1.4833155429        5.1316653653
H                 1.4297719290        2.0079917089        5.8032429620
H                -0.1176100136        2.6473692774        4.7615670729
H                -0.6073640237        2.2000677378        3.0802652014
H                 0.6178002516        3.5040705674        3.3337779771
H                 1.6051717585        0.5068812351        1.1442533173
H                 2.7500948828       -1.6585436831        1.0900709642
H                 2.8865339768       -2.9385350152        2.7740229392



