%nprocshared=20
%mem=5GB
#p m062x/cc-pVTZ opt=(calcfc,maxcycles=900,Tight) freq IOP(7/33=1,2/16=3) scf=(maxcycle=900) 

Gaussian input prepared by ASE

0 1
O                 3.8560618870       -1.3683371594        2.7899644133
O                 1.5110580042        0.3287857457        3.0847304867
C                 3.4994097167       -2.3926180723        3.6941353601
C                 2.9444137697       -3.6570199317        3.0381782222
C                 2.6297118817       -1.8977376929        4.8026427556
C                 2.9389761931       -1.1013789837        1.7992161494
C                 1.9030952799       -0.3234822790        1.9252300389
H                 4.4711418089       -2.6770173857        4.1852565075
H                 2.8145362427       -3.5538367814        1.9405913575
H                 3.6186630584       -4.5162930489        3.2070676140
H                 1.9473409633       -3.9338259921        3.4761902811
H                 1.5285621368       -1.9637535441        4.5581084703
H                 2.8604350604       -0.8369404994        5.0340528226
H                 2.8047924862       -2.5044173117        5.7358352342
H                 3.1884864482       -1.5278893606        0.8145485502
H                 1.2327833865       -0.1271520979        1.1014830356
H                 2.1913655042        0.1075488366        3.7847437976



