%nprocshared=20
%mem=5GB
#p m062x/cc-pVTZ opt=(calcfc,maxcycles=900,Tight) freq IOP(7/33=1,2/16=3) scf=(maxcycle=900) 

Gaussian input prepared by ASE

0 1
O                 2.5649783067        1.0568647870       -0.9235655604
O                 0.1037803252        0.4797991962        0.4569912342
C                 2.4997244846        0.6501721393       -2.2742025542
C                 1.0571940056        0.7232713477       -2.7749766077
C                 3.2111591800       -0.6245730572       -2.5887735610
C                 2.4125494084        0.0464321487       -0.0017812720
C                 1.3077047242       -0.1819940868        0.6472115853
H                 3.0661203431        1.4482863131       -2.8296804629
H                 0.3490039938        0.7887823240       -1.9226931577
H                 0.9233093695        1.6284131844       -3.3948791643
H                 0.7458541847       -0.1516950709       -3.4075361877
H                 2.5435273103       -1.5358642275       -2.6111780102
H                 4.0138263362       -0.8391415948       -1.8527299012
H                 3.6984666654       -0.5405362721       -3.6012116152
H                 3.3369523962       -0.5099583895        0.2210312839
H                 1.2388756737       -0.9300714352        1.4231404110
H                 0.2294277683        1.0850655358       -0.3301860509



