%nprocshared=20
%mem=5GB
#p m062x/cc-pVTZ opt=(calcfc,maxcycles=900,Tight) freq IOP(7/33=1,2/16=3) scf=(maxcycle=900) 

Gaussian input prepared by ASE

0 1
O                 3.4330149752       -0.7733915898       -1.2579046614
O                 0.9608941436       -1.2319910713        1.3847508115
C                 4.6879086121       -1.4207153243       -1.2483546450
C                 4.5657722806       -2.9119069411       -0.9345989940
C                 5.6810181927       -0.6821626022       -0.4126855732
C                 2.8511751880       -0.7833588754       -0.0108047956
C                 1.6241325329       -1.1789689044        0.1678319240
H                 5.0327052673       -1.3442465714       -2.3168180306
H                 3.5649312895       -3.1561596005       -0.5212349789
H                 4.7012336587       -3.5084235981       -1.8550902286
H                 5.3384887516       -3.2623394772       -0.1978923814
H                 5.9391210593       -1.2103643796        0.5522349742
H                 5.2896737309        0.3247210598       -0.1575203459
H                 6.6409251019       -0.5397489962       -0.9852750163
H                 3.4846400523       -0.3796027349        0.7950736038
H                 1.0096600613       -1.5200869067       -0.6522197756
H                 1.6349972452       -1.0318622747        2.0970121212



