%nprocshared=20
%mem=5GB
#p m062x/cc-pVTZ opt=(calcfc,maxcycles=900,Tight) freq IOP(7/33=1,2/16=3) scf=(maxcycle=900) 

Gaussian input prepared by ASE

0 1
O                 4.6405731929       -1.2161744279        1.8406005006
O                 2.2430243415       -2.2298328567        2.8625782775
C                 5.5612860627       -1.6465691561        0.8603324508
C                 6.0610388956       -3.0374498686        1.2511140769
C                 6.6441036059       -0.6464910741        0.6207086664
C                 3.4188018535       -0.8663297478        1.3126057525
C                 2.3083734838       -1.3123753015        1.8245083310
H                 5.0057018693       -1.7590796508       -0.1117857533
H                 5.7852397174       -3.2740719767        2.2999976030
H                 5.6049746615       -3.8086945587        0.6040645715
H                 7.1765988354       -3.1369551846        1.1602567557
H                 7.6188649821       -0.9093990047        1.1280601712
H                 6.3558367584        0.3728526005        0.9522432615
H                 6.8634661289       -0.5857517096       -0.4828095224
H                 3.4342494951       -0.1275431859        0.4954811988
H                 1.3320902922       -1.0216604931        1.4656507967
H                 3.1874760315       -2.4206095118        3.1334988805



