%nprocshared=20
%mem=5GB
#p m062x/cc-pVTZ opt=(calcfc,maxcycles=900,Tight) freq IOP(7/33=1,2/16=3) scf=(maxcycle=900) 

Gaussian input prepared by ASE

0 1
O                 0.6997256192       -2.3248850163       -0.2104814438
O                 0.5677026533        0.6200436267       -0.5616722034
C                -0.6296005856       -2.5373214994        0.2157108155
C                -1.5693183025       -1.4181857507       -0.2331523246
C                -0.7578774597       -2.8419772900        1.6720073007
C                 1.3944504702       -1.3720856973        0.4990436081
C                 1.3752102910       -0.0830594683        0.3198977274
H                -0.9296159545       -3.4637794018       -0.3482153707
H                -1.0006513340       -0.5567707931       -0.6415565480
H                -2.2413712993       -1.7800237908       -1.0324670450
H                -2.1989120564       -1.0453707274        0.6196378040
H                -1.1398811412       -1.9552705483        2.2589572232
H                 0.2000648051       -3.1607183229        2.1333371840
H                -1.5037974626       -3.6747750714        1.8120529525
H                 2.1294330526       -1.7813925027        1.2103840980
H                 2.0592681377        0.5509430052        0.8644419643
H                 0.4001924421        1.5162601906       -0.1487328620



