%nprocshared=20
%mem=5GB
#p m062x/cc-pVTZ opt=(calcfc,maxcycles=900,Tight) freq IOP(7/33=1,2/16=3) scf=(maxcycle=900) 

Gaussian input prepared by ASE

0 1
O                -0.1185147351        0.4165519462        0.2239505459
O                 1.1083658458       -1.8773550146       -0.8252781118
C                -0.1356842512        1.7839108051       -0.1280611279
C                -0.8022690087        2.6344334838        0.9532752046
C                -0.7393642917        1.9362145166       -1.4854275295
C                 1.1142299942       -0.0173383751        0.6551982492
C                 1.6534730647       -1.1073439437        0.1913482506
H                 0.9312391765        2.1354715246       -0.1945868368
H                -1.2757666318        2.0122216698        1.7412246442
H                -0.0608398116        3.2917469343        1.4428748305
H                -1.5958436249        3.3075713248        0.5292998332
H                -1.7827189260        2.3694392737       -1.4650980664
H                -0.7959590083        0.9609206952       -2.0123748608
H                -0.1064822504        2.6190028189       -2.1201101558
H                 1.5786994039        0.5542122953        1.4745484482
H                 2.5906275403       -1.5001585093        0.5572183174
H                 0.2298099167       -1.4596191420       -1.0606903466



