%nprocshared=20
%mem=5GB
#p m062x/cc-pVTZ opt=(calcfc,maxcycles=900,Tight) freq IOP(7/33=1,2/16=3) scf=(maxcycle=900) 

Gaussian input prepared by ASE

0 1
O                -0.0297863227        0.4760788254        0.2124589937
O                 1.0965200544       -1.8560328787       -0.8527683878
C                -0.0619156732        1.8536363795       -0.0960538099
C                 1.3342638473        2.4278664603       -0.3367920307
C                -0.8880306657        2.6379716060        0.8695661110
C                 1.1610780994       -0.0347930511        0.6758668204
C                 1.6396548296       -1.1528281687        0.2121709728
H                -0.6069740381        1.8988419540       -1.0795242186
H                 2.0885410257        1.7546735329        0.1215627235
H                 1.5506752649        2.4955534562       -1.4184900425
H                 1.4532102448        3.4479420484        0.1191990756
H                -0.2683505611        3.3343318769        1.5081307602
H                -1.4865575962        2.0006366340        1.5534112228
H                -1.6136001118        3.2932467277        0.3094544491
H                 1.6236520073        0.4761327487        1.5353532699
H                 2.5230497405       -1.6320415020        0.6076336292
H                 0.2756799884       -1.3561114246       -1.1322014312



