%nprocshared=20
%mem=5GB
#p m062x/cc-pVTZ opt=(calcfc,maxcycles=900,Tight) freq IOP(7/33=1,2/16=3) scf=(maxcycle=900) 

Gaussian input prepared by ASE

0 1
O                 1.7051013371       -3.0458682261        1.6821613236
O                 0.8635136948       -1.9616754397       -0.7460181996
C                 0.9439452639       -3.2473221831        2.8543110561
C                 0.4475798053       -1.9559756786        3.5047400429
C                 1.6712762818       -4.0865539724        3.8526843102
C                 1.9378946646       -1.7318877100        1.3457725158
C                 1.5819414775       -1.2390959987        0.1949007993
H                 0.0381215191       -3.8240859920        2.5178990141
H                 0.9412545219       -1.0714288366        3.0507862805
H                -0.6454200604       -1.8329283501        3.3965889047
H                 0.6854472415       -1.9627375939        4.6029220402
H                 1.9610678311       -3.4701211910        4.7541926873
H                 2.5899226537       -4.5580354262        3.4454146550
H                 1.0008486057       -4.9105205186        4.2284068697
H                 2.5285465160       -1.1326992419        2.0569970374
H                 1.8331437085       -0.2290931396       -0.0935682002
H                 0.7052199678       -1.3565951724       -1.5274295293



