%nprocshared=20
%mem=5GB
#p m062x/cc-pVTZ opt=(calcfc,maxcycles=900,Tight) freq IOP(7/33=1,2/16=3) scf=(maxcycle=900) 

Gaussian input prepared by ASE

0 1
O                 4.2605385046        0.6989165946        1.9739769493
O                 0.9569133909       -0.8615043940        1.7095710053
C                 4.7873345044        0.1969463975        3.1840964293
C                 5.7644112258        1.2216025522        3.7606492675
C                 5.3747192718       -1.1571865417        2.9574410125
C                 3.1481162442        0.0307518697        1.5157547596
C                 2.1110045465       -0.2960628761        2.2310473559
H                 3.9318851892        0.1031371538        3.9091843585
H                 5.9066007001        2.0619588283        3.0494563664
H                 5.3798999117        1.6615490867        4.6987772524
H                 6.7759540619        0.7805771646        3.9725644350
H                 6.4955053246       -1.1360157920        2.8157501758
H                 4.9311266746       -1.5931743228        2.0380853945
H                 5.1432788337       -1.8748403748        3.7946804522
H                 3.1508050412       -0.0894308742        0.4206357577
H                 2.0324663017       -0.1750815443        3.3013827994
H                 1.0633314332       -0.8912525720        0.7147981939



