%nprocshared=20
%mem=5GB
#p m062x/cc-pVTZ opt=(calcfc,maxcycles=900,Tight) freq IOP(7/33=1,2/16=3) scf=(maxcycle=900) 

Gaussian input prepared by ASE

0 1
O                -0.0723786704       -1.5359432564        2.0476736114
O                 0.0063930869        0.4351650025       -0.1034500878
C                -1.0246046754       -0.5438737549        2.3685178096
C                -0.4551974563        0.3900093972        3.4365299851
C                -2.3208628175       -1.1881241889        2.7355678979
C                 1.0572245388       -1.0005097753        1.4721716243
C                 1.1164453761       -0.1177179061        0.5175913720
H                -1.2029205769        0.0731555222        1.4444915543
H                 0.5347376636        0.0193965176        3.7754789666
H                -0.2962055061        1.4053025414        3.0298514744
H                -1.1252446721        0.4782251616        4.3342409895
H                -2.4723516944       -1.2451979379        3.8538163396
H                -2.3445453514       -2.2227686389        2.3342893293
H                -3.1952864121       -0.6296518382        2.2961892564
H                 1.9836200514       -1.4517748276        1.8618996793
H                 2.0658091197        0.2004483051        0.1127439385
H                 0.3275846642        1.2357302310       -0.6111054685



