%nprocshared=20
%mem=5GB
#p m062x/cc-pVTZ opt=(calcfc,maxcycles=900,Tight) freq IOP(7/33=1,2/16=3) scf=(maxcycle=900) 

Gaussian input prepared by ASE

0 1
O                 1.6665749432       -3.0801845747        1.6597246054
O                 0.8609376005       -1.9556710216       -0.7577559221
C                 0.9136209586       -3.2785392751        2.8376859672
C                 1.7351141316       -4.0343902651        3.8821238915
C                -0.3600643069       -4.0022594289        2.5478160939
C                 1.9028834786       -1.7606812916        1.3483336584
C                 1.5673597343       -1.2451754891        0.2012810726
H                 0.6576420108       -2.2667471370        3.2585156923
H                 2.6881674248       -4.4044019249        3.4496974217
H                 1.9769857302       -3.3974833670        4.7523731391
H                 1.1493980445       -4.9207661855        4.2480538480
H                -0.2961623396       -5.0690882339        2.9145294826
H                -0.5986444531       -4.0356093633        1.4642840059
H                -1.2287840964       -3.5147219072        3.0743088973
H                 2.4804510488       -1.1760897033        2.0820946050
H                 1.8274689377       -0.2413166782       -0.1004363285
H                 0.7132397837       -1.3366916574       -1.5303053389



