%nprocshared=20
%mem=5GB
#p m062x/cc-pVTZ opt=(calcfc,maxcycles=900,Tight) freq IOP(7/33=1,2/16=3) scf=(maxcycle=900) 

Gaussian input prepared by ASE

0 1
O                 1.7823583150       -1.7350624235        3.3416459393
O                 1.9491230768       -3.1646532815        0.9822365237
C                 1.7202130882       -0.8642890142        4.4514967853
C                 2.9867955613       -0.0234794908        4.6121844148
C                 1.4476694939       -1.6563925101        5.6877660120
C                 2.0073694835       -1.1104309896        2.1361997539
C                 2.0858147989       -1.7851635937        1.0259591064
H                 0.8581311602       -0.1624184886        4.2767434596
H                 3.7920514768       -0.3479092289        3.9204329309
H                 2.7937926560        1.0502705748        4.4352756951
H                 3.3690445875       -0.1307152738        5.6633820693
H                 2.3730704495       -1.7009925611        6.3345501930
H                 1.1436020719       -2.7007639650        5.4666195511
H                 0.6258906826       -1.1734082742        6.2885716322
H                 2.1155922980       -0.0140657018        2.1389797238
H                 2.2619264376       -1.3269896096        0.0639383213
H                 2.0525155439       -3.4384603429        0.0250936970



