%nprocshared=20
%mem=5GB
#p m062x/cc-pVTZ opt=(calcfc,maxcycles=900,Tight) freq IOP(7/33=1,2/16=3) scf=(maxcycle=900) 

Gaussian input prepared by ASE

0 1
O                 0.7890631671       -2.4476279396       -0.1101537952
O                 2.2168387272        0.6914691389        1.0697317636
C                -0.5775751591       -2.5342257803        0.2343425897
C                -1.0676896371       -1.4511633215        1.1954751710
C                -0.9128956433       -3.8858039508        0.7736627005
C                 1.5563050895       -1.4654541722        0.4734295179
C                 1.3736056267       -0.1791414021        0.3955038243
H                -1.1355556055       -2.4070149311       -0.7345853907
H                -0.2016032395       -0.8890018545        1.6030051661
H                -1.7363711015       -0.7239410674        0.6999967028
H                -1.6196623174       -1.9139649185        2.0578968672
H                -1.1397496392       -3.8229773246        1.8787762466
H                -0.1047355004       -4.6334682586        0.6324190947
H                -1.8375073066       -4.2916929483        0.2737537349
H                 2.4275747237       -1.8445117203        1.0310506704
H                 0.5571368212        0.3108129164       -0.1141491512
H                 1.8782411968        1.6183715415        0.9024405547



