%nprocshared=20
%mem=5GB
#p m062x/cc-pVTZ opt=(calcfc,maxcycles=900,Tight) freq IOP(7/33=1,2/16=3) scf=(maxcycle=900) 

Gaussian input prepared by ASE

0 1
O                 2.9576985522        0.8105889739        3.0194978068
O                 0.6983744089        1.2914721409        0.7210686027
C                 2.2519363298        1.8224055398        3.7065234123
C                 2.4374687005        1.5796585139        5.2044099069
C                 0.8243758991        2.0398502086        3.3259204794
C                 2.5336514592        0.1444526483        1.8924035701
C                 1.6617010882        0.3184197465        0.9418826344
H                 2.7942298524        2.7823009053        3.4809910803
H                 2.8320114366        0.5623301280        5.4083482419
H                 3.1482636249        2.3027914126        5.6441091293
H                 1.4722416362        1.6819484699        5.7705404742
H                 0.1624240621        2.1865478881        4.2297929408
H                 0.4226978406        1.1857941791        2.7416966130
H                 0.7218059802        2.9681575542        2.6956138367
H                 3.2017581347       -0.7215624056        1.7605394482
H                 1.6041613401       -0.4506737260        0.1858356069
H                 1.1049470261        2.1802938507        0.9366547229



