%nprocshared=20
%mem=5GB
#p m062x/cc-pVTZ opt=(calcfc,maxcycles=900,Tight) freq IOP(7/33=1,2/16=3) scf=(maxcycle=900) 

Gaussian input prepared by ASE

0 1
O                -0.0778942419       -0.4853164765       -0.3260756644
O                 0.9330101230        1.5800563805        1.6924675624
C                -1.0201183605        0.5071052528        0.0220479937
C                -1.4965685998        0.3884235637        1.4697779948
C                -2.1873280960        0.4386655357       -0.9069337060
C                 1.0821194454       -0.4519542289        0.4136203311
C                 1.5283112281        0.3905381909        1.2997193468
H                -0.5186057244        1.5058763239       -0.1094344512
H                -1.0762358437       -0.5033523387        1.9799426488
H                -1.2216581490        1.2843000855        2.0557093232
H                -2.6142886110        0.2740933192        1.4859307590
H                -3.1043692349        0.0331960864       -0.3860537340
H                -2.0006604152       -0.2266886755       -1.7755725496
H                -2.4594797501        1.4562969876       -1.3068353004
H                 1.7189849362       -1.3171928230        0.1696915054
H                 2.4577971694        0.1751472009        1.8057680661
H                 1.2504199260        1.7656269439        2.6233796328



