%nprocshared=20
%mem=5GB
#p m062x/cc-pVTZ opt=(calcfc,maxcycles=900,Tight) freq IOP(7/33=1,2/16=3) scf=(maxcycle=900) 

Gaussian input prepared by ASE

0 1
O                 1.0008749359        0.2560948617        3.1483318928
O                 2.3661216713       -2.1531210138        3.0600957734
C                 1.4094721152        1.4972092411        3.6836455414
C                 2.4871097478        2.2017581467        2.8594366465
C                 1.8480070230        1.3495091820        5.1034840488
C                 1.6613241185       -0.1635462269        2.0162527464
C                 2.2786521948       -1.3081855997        1.9637284414
H                 0.4877412328        2.1426132967        3.6690854726
H                 2.8972686512        1.5250355270        2.0809586250
H                 2.0960333502        3.1036444319        2.3543164630
H                 3.3392299682        2.5158474448        3.5211536425
H                 2.9661486600        1.4856370667        5.1924466728
H                 1.6044577554        0.3536006739        5.5288362413
H                 1.3619673763        2.1315314745        5.7529208633
H                 1.5846389592        0.4816489349        1.1265453003
H                 2.7541455391       -1.6874348490        1.0712606345
H                 2.8956223617       -2.9527238598        2.7736572853



