%nprocshared=20
%mem=5GB
#p m062x/cc-pVTZ opt=(calcfc,maxcycles=900,Tight) freq IOP(7/33=1,2/16=3) scf=(maxcycle=900) 

Gaussian input prepared by ASE

0 1
O                -0.0432386574       -1.3138173505        1.6988520851
O                 3.3636573241       -1.1736357659        0.5024504374
C                -1.0012885480       -0.4401430049        2.2580575974
C                -2.3289776959       -0.6772724589        1.5383191181
C                -0.6215106817        1.0027960106        2.3194198825
C                 1.1669945076       -0.7993604948        1.2931862249
C                 2.1360265601       -1.6093251460        0.9785655087
H                -1.1398931184       -0.7813814026        3.3213973074
H                -2.1704817414       -1.3537603979        0.6726084501
H                -3.0807235895       -1.1421310127        2.2018480598
H                -2.7575551839        0.2818756010        1.1395877850
H                -0.9686628664        1.5712110559        1.4066901487
H                 0.4780843552        1.1426307813        2.3778277748
H                -1.0680212911        1.4914757514        3.2312213776
H                 1.2366505647        0.2956012959        1.1934693229
H                 2.0267828668       -2.6811799567        1.0535040182
H                 4.0361022139       -1.8623117092        0.7769062906



