%nprocshared=20
%mem=5GB
#p m062x/cc-pVTZ opt=(calcfc,maxcycles=900,Tight) freq IOP(7/33=1,2/16=3) scf=(maxcycle=900) 

Gaussian input prepared by ASE

0 1
C                 1.5158936231       -0.9449882282        0.6543357010
C                 0.1251803019       -0.4084844415        0.6609459199
C                -0.0348564663        1.0240140293        0.2167405914
C                 2.2610392564       -0.7864787128       -0.6281067884
C                 0.8093993708        2.0248413741        0.9699201499
C                 3.2406173963        0.3135275939       -0.6279921799
C                 0.0999284443        3.3072278260        1.3192936786
H                 1.5366260048       -0.6419857577       -1.4786848077
H                 2.7975843620       -1.7372332898       -0.8603570929
H                 1.4627278146       -2.0235687350        0.9139777373
H                 2.0890458269       -0.4748988475        1.4796577021
H                -0.2894101205       -0.5153268284        1.6755319025
H                -0.5098293180       -1.0426267169        0.0068191301
H                -1.1030824294        1.2880352184        0.2961738551
H                 0.2061589687        1.0946571194       -0.8640303714
H                 1.2054365493        1.5629583574        1.9119068654
H                 1.6980789255        2.2657558998        0.3620805243
H                 4.0505144872        0.1196370532        0.1002607297
H                 3.7125867369        0.4402636847       -1.6471677461
H                 2.7726609916        1.2831123438       -0.3552019379
H                -0.5815056580        3.1699479795        2.1597577336
H                -0.4935054902        3.7024063347        0.4489318620
H                 0.8471898140        4.1018017106        1.6058890157



