%nprocshared=20
%mem=5GB
#p m062x/cc-pVTZ opt=(calcfc,maxcycles=900,Tight) freq IOP(7/33=1,2/16=3) scf=(maxcycle=900) 

Gaussian input prepared by ASE

0 1
C                 1.3901308871       -1.1359554440        0.5023665435
C                 0.1749331009       -0.3915966412        0.9396168872
C                 0.1313684080       -0.1002167218        2.4188673292
C                 2.1419537913       -0.5020410622       -0.6192131002
C                 0.1640548796       -1.3559528973        3.2577719675
C                 3.5261601080       -0.1184704169       -0.2929713906
C                -0.9986297392       -2.2776419132        2.9958946961
H                 1.5788630439        0.4047043904       -0.9795979422
H                 2.1443482895       -1.1945897978       -1.4944991306
H                 1.0961537862       -2.1654656251        0.2069638503
H                 2.0713963217       -1.2720963030        1.3672289338
H                -0.7257669812       -0.9688851017        0.6785371568
H                 0.0908590387        0.5672757440        0.3857660039
H                -0.7816849880        0.4759416446        2.6458002992
H                 0.9873554218        0.5473096896        2.7001866118
H                 1.1201737254       -1.8992423732        3.0382414730
H                 0.1958051756       -1.0883393516        4.3276481654
H                 3.7752224166       -0.3439357568        0.7610743801
H                 4.2753910676       -0.6699247698       -0.9349114157
H                 3.7008094896        0.9675047346       -0.4467500100
H                -1.2929639095       -2.2411736877        1.9463159784
H                -1.8912812284       -1.9936051721        3.6190768754
H                -0.7313356905       -3.3428878256        3.2521936183



