%nprocshared=20
%mem=5GB
#p m062x/cc-pVTZ opt=(calcfc,maxcycles=900,Tight) freq IOP(7/33=1,2/16=3) scf=(maxcycle=900) 

Gaussian input prepared by ASE

0 1
C                 1.3741715286       -1.1572460250        0.5440364066
C                 0.0736696934       -0.5282391076        0.9114718765
C                -0.0333210983       -0.0612398022        2.3416629928
C                 2.1098708749       -0.4394260604       -0.5369386118
C                 0.2397513890        1.4154186911        2.5048005137
C                 2.5254986832        0.9315723592       -0.1945877998
C                 0.1943796591        1.9050084747        3.9289385407
H                 1.4577517344       -0.4201365005       -1.4553635023
H                 3.0050012007       -1.0396632164       -0.8271319550
H                 1.1917012610       -2.2001855819        0.2085394886
H                 2.0303695133       -1.2465268009        1.4340235008
H                -0.7402986941       -1.2434665744        0.7150275722
H                -0.1252875096        0.3332110047        0.2394783978
H                 0.6554187445       -0.6395199323        2.9806880784
H                -1.0535563039       -0.2756594219        2.7215170595
H                 1.2475160836        1.6577174917        2.0767561800
H                -0.4875312181        1.9842697230        1.9008728004
H                 1.9483864044        1.3353555567        0.6585122453
H                 3.6184923667        0.9725597510        0.0904047819
H                 2.3859615289        1.6292108362       -1.0474196929
H                 1.0335246893        1.5196595832        4.5093865316
H                -0.7586927330        1.5971181420        4.4414969652
H                 0.2506163667        3.0311406581        3.9523444826



