%nprocshared=20
%mem=5GB
#p m062x/cc-pVTZ opt=(calcfc,maxcycles=900,Tight) freq IOP(7/33=1,2/16=3) scf=(maxcycle=900) 

Gaussian input prepared by ASE

0 1
C                 1.5063497859       -1.0774359010        0.5955143043
C                 0.1806376124       -0.4920076037        0.9444046763
C                -1.0565679356       -1.3088067030        0.6666571769
C                 2.1826536377       -0.4272067510       -0.5641585688
C                -0.9019832488       -2.6501801969       -0.0104864299
C                 3.3950356563       -1.1316748185       -1.0152038024
C                -1.2486024339       -3.8170344042        0.8773380289
H                 2.4376674234        0.6338933672       -0.2845691407
H                 1.4619955770       -0.3336433807       -1.4113025798
H                 1.4048715798       -2.1640640073        0.3893152929
H                 2.1787634858       -1.0083113460        1.4751309777
H                 0.0671289542        0.4768264870        0.4333650308
H                 0.1826333942       -0.2372399857        2.0253047539
H                -1.7432496674       -0.6964323407        0.0578966495
H                -1.5902897139       -1.4593095409        1.6277163422
H                -1.5689169074       -2.6819484084       -0.9114362707
H                 0.1251356074       -2.7803843067       -0.3917132850
H                 3.5829287200       -2.0478846633       -0.4243274558
H                 3.3120648322       -1.4496459695       -2.0966593584
H                 4.3012423553       -0.4948833411       -0.9328731707
H                -2.1723159904       -3.6342767499        1.4277296397
H                -0.4321021111       -4.0164625984        1.6252786670
H                -1.3843401023       -4.7559173664        0.2674542953



