%nprocshared=20
%mem=5GB
#p m062x/cc-pVTZ opt=(calcfc,maxcycles=900,Tight) freq IOP(7/33=1,2/16=3) scf=(maxcycle=900) 

Gaussian input prepared by ASE

0 1
C                 1.5045141456       -1.0878642661        0.6084835144
C                 0.1779118150       -0.4958581908        0.9425772335
C                -1.0616163420       -1.3090468000        0.6645911835
C                 2.2035539536       -0.4635047270       -0.5519235404
C                -0.9102541928       -2.6507316880       -0.0126634963
C                 2.6926875549        0.9092592501       -0.3377866610
C                -1.2539154979       -3.8173106092        0.8766713102
H                 1.5224224799       -0.4841984763       -1.4490118439
H                 3.0626304207       -1.1189213204       -0.8315158021
H                 1.3919089936       -2.1739905160        0.4054407875
H                 2.1643577852       -1.0223942636        1.4978450439
H                 0.0701409994        0.4712958520        0.4271320485
H                 0.1729414088       -0.2375353385        2.0226235747
H                -1.7498891754       -0.6955441749        0.0587706030
H                -1.5965149656       -1.4587850373        1.6251153543
H                -1.5786257032       -2.6830793804       -0.9125265364
H                 0.1171328420       -2.7807444954       -0.3932324396
H                 2.4003194219        1.3209857291        0.6465310323
H                 3.8212576058        0.9494626208       -0.3852130176
H                 2.3147041743        1.6067141338       -1.1150752490
H                -2.1763935655       -3.6379086029        1.4302299385
H                -0.4345554692       -4.0130028904        1.6224683699
H                -1.3882343047       -4.7570618600        0.2678116017



