%nprocshared=20
%mem=5GB
#p m062x/cc-pVTZ opt=(calcfc,maxcycles=900,Tight) freq IOP(7/33=1,2/16=3) scf=(maxcycle=900) 

Gaussian input prepared by ASE

0 1
C                 1.5718910080       -0.8081045310        0.6347008102
C                 0.4471933220        0.0957736361        1.0088971812
C                -0.1378320635       -0.2631830901        2.3519822035
C                 2.1328349315       -0.5861204357       -0.7295172794
C                -1.3382396567        0.5540769024        2.7676869720
C                 3.3567489546       -1.3592807053       -1.0012614270
C                -1.0189063905        1.9749669401        3.1537227683
H                 2.3356771907        0.5126612623       -0.8732863237
H                 1.3505120173       -0.8357993144       -1.4854183546
H                 1.2310763744       -1.8623523564        0.7120533036
H                 2.3855710139       -0.7042279308        1.3815464301
H                -0.3419671011        0.0549318226        0.2419271669
H                 0.7986478385        1.1490602569        1.0268559445
H                 0.6488858798       -0.1726627643        3.1200996999
H                -0.4330169530       -1.3325866678        2.3323193192
H                -2.0952967798        0.5583316628        1.9404223532
H                -1.8201260995        0.0551630492        3.6256675040
H                 3.6387765264       -2.0052035129       -0.1485461666
H                 3.2336031163       -2.0332023438       -1.9002612366
H                 4.2208521475       -0.6937773107       -1.2108400608
H                -0.5871942299        2.5317069749        2.3211105152
H                -0.2871963584        2.0039821965        4.0078996375
H                -1.9558017262        2.5071814348        3.4866776624



