%nprocshared=20
%mem=5GB
#p m062x/cc-pVTZ opt=(calcfc,maxcycles=900,Tight) freq IOP(7/33=1,2/16=3) scf=(maxcycle=900) 

Gaussian input prepared by ASE

0 1
C                 1.3857111758       -1.0738328575        0.5173555244
C                 0.1263730429       -0.4233974807        0.9788366591
C                -1.1073970977       -1.2659734455        0.7718125213
C                 2.1672366657       -0.4572677974       -0.5935411654
C                -1.1055801604       -2.5784959823        1.5194648664
C                 1.6953495568        0.7928980227       -1.2132146268
C                -0.9254887578       -2.4568093794        3.0103321735
H                 2.2782687067       -1.2313333667       -1.4044851341
H                 3.2100343897       -0.2956783663       -0.2299247706
H                 1.1504061260       -2.1203134707        0.2291084778
H                 2.0603606246       -1.1794181518        1.3916230731
H                -0.0348060634        0.5425576819        0.4752126431
H                 0.2075654553       -0.1758139394        2.0583577021
H                -1.2250843538       -1.4742410516       -0.3051730190
H                -1.9988150544       -0.6778472956        1.0728547413
H                -2.0758668058       -3.1012895517        1.3127015972
H                -0.3152333282       -3.2315172494        1.1118188440
H                 0.7210126636        1.1371466545       -0.8181960981
H                 2.4337329231        1.6332272527       -1.0514347778
H                 1.5780484516        0.6773001101       -2.3115633297
H                -1.5122782763       -1.6375772563        3.4276028405
H                 0.1525116619       -2.2766432343        3.2773805496
H                -1.2448707463       -3.4110752858        3.5195038786



