%nprocshared=20
%mem=5GB
#p m062x/cc-pVTZ opt=(calcfc,maxcycles=900,Tight) freq IOP(7/33=1,2/16=3) scf=(maxcycle=900) 

Gaussian input prepared by ASE

0 1
C                 1.4767813223       -1.0921828902        0.6160330932
C                 0.1752509696       -0.4379307497        0.9321603268
C                -1.0525628334       -1.2589932829        0.6266908655
C                 2.2171375368       -0.4753456619       -0.5225671569
C                -1.2985924620       -1.5895731694       -0.8265431489
C                 2.6830701666        0.8999626825       -0.2755429430
C                -0.2345170047       -2.4334324475       -1.4789010337
H                 1.5556530885       -0.5020903820       -1.4340817122
H                 3.0841083374       -1.1291573864       -0.7807279201
H                 1.3158778823       -2.1691861240        0.3975139466
H                 2.1264629900       -1.0667653811        1.5148721004
H                 0.1035091018        0.5320704346        0.4157922053
H                 0.1485304533       -0.2001570592        2.0165980548
H                -1.9306385844       -0.7103102715        1.0075497220
H                -1.0094708054       -2.2039515508        1.2066406125
H                -2.2765062495       -2.1347996281       -0.8892573647
H                -1.4327464069       -0.6616495756       -1.4081105939
H                 2.3645145742        1.2784528657        0.7139754528
H                 3.8115350358        0.9583757057       -0.3018276867
H                 2.3022355885        1.6085630439       -1.0412732167
H                 0.1317874943       -3.2117925607       -0.8084127279
H                 0.6429914231       -1.8001077758       -1.7866970688
H                -0.6422137041       -2.9312389844       -2.4051062773



