%nprocshared=20
%mem=5GB
#p m062x/cc-pVTZ opt=(calcfc,maxcycles=900,Tight) freq IOP(7/33=1,2/16=3) scf=(maxcycle=900) 

Gaussian input prepared by ASE

0 1
C                 1.3947465960       -1.1398938075        0.5005969459
C                 0.1664038899       -0.4182173668        0.9391409705
C                -0.8704785603       -0.2486747988       -0.1430383640
C                 2.1633220298       -0.4647944304       -0.5850174670
C                -2.1612494534       -0.9929118040        0.1054058383
C                 2.3464611895       -1.2635123707       -1.8089851626
C                -2.0169206792       -2.4845718883        0.2604712041
H                 3.1721209925       -0.1647063891       -0.1832618692
H                 1.6731413156        0.5023841393       -0.8496749847
H                 1.1147546546       -2.1668118612        0.1833898784
H                 2.0519113554       -1.2724433061        1.3844572230
H                 0.4508273037        0.5714598968        1.3294324840
H                -0.2739696607       -0.9653915466        1.7993310965
H                -0.4513310697       -0.5583306517       -1.1154334349
H                -1.1178713855        0.8274984999       -0.2516320157
H                -2.6460400038       -0.5723046581        1.0249644777
H                -2.8523077985       -0.7859488830       -0.7293784949
H                 1.9089905528       -2.2754894174       -1.7173279802
H                 1.8584308750       -0.7725241776       -2.7024575665
H                 3.4205088228       -1.3915865210       -2.0609990378
H                -1.1151524966       -2.7508251088        0.8131930033
H                -1.9740681972       -2.9881774970       -0.7447176516
H                -2.9047974235       -2.9109995004        0.8097602707



