%nprocshared=20
%mem=5GB
#p m062x/cc-pVTZ opt=(calcfc,maxcycles=900,Tight) freq IOP(7/33=1,2/16=3) scf=(maxcycle=900) 

Gaussian input prepared by ASE

0 1
C                 1.3871432973       -1.1691557042        0.5014992601
C                 0.1672727900       -0.4256987020        0.9271178467
C                -0.6267691930       -1.1077715778        2.0130533565
C                 2.1347587749       -0.4871671627       -0.5943970612
C                -0.7605150940       -0.3147351938        3.2916885928
C                 3.3637429578       -1.1784582612       -1.0201924527
C                -2.1790908182        0.0285071644        3.6655247445
H                 2.3839346990        0.5615176811       -0.2668192885
H                 1.4479414139       -0.3585753318       -1.4647424948
H                 1.1053908137       -2.1915004175        0.1713427439
H                 2.0556893929       -1.3088362289        1.3756727836
H                -0.4796736358       -0.2637451073        0.0508093478
H                 0.4644366254        0.5909767205        1.2607647261
H                -0.1726123891       -2.0853370758        2.2480657703
H                -1.6355028808       -1.3463081616        1.6171980731
H                -0.3019415414       -0.8943899766        4.1350337000
H                -0.1728313938        0.6168240977        3.2277720462
H                 3.5634263906       -2.0835204142       -0.4161492706
H                 3.3012908960       -1.5028582431       -2.1011181308
H                 4.2549408763       -0.5215827539       -0.9320270515
H                -2.8594403320       -0.7997407358        3.4637625705
H                -2.5441122257        0.9256247088        3.0929873539
H                -2.2406586995        0.2767493711        4.7639187097



