%nprocshared=20
%mem=5GB
#p m062x/cc-pVTZ opt=(calcfc,maxcycles=900,Tight) freq IOP(7/33=1,2/16=3) scf=(maxcycle=900) 

Gaussian input prepared by ASE

0 1
C                 1.4683433061       -1.0946630703        0.3659031489
C                 0.1886194628       -0.5064590612        0.8540491090
C                -1.0391210400       -1.3759075002        0.7459071656
C                 2.1934571620       -0.2530938163       -0.6295852271
C                -1.0677504499       -2.6167208078        1.6068748959
C                 1.5123200702       -0.0998478630       -1.9265644713
C                -0.0435281632       -3.6680211770        1.2667835685
H                 3.2159095374       -0.6962407332       -0.7949565973
H                 2.3837520259        0.7516810695       -0.1824047114
H                 1.2893360998       -2.1005628193       -0.0696408961
H                 2.1435163342       -1.2647719583        1.2295281997
H                -0.0241810944        0.4235217008        0.3040155326
H                 0.3074919059       -0.2032712432        1.9157468010
H                -1.2004341891       -1.6595286246       -0.3079717011
H                -1.9127696478       -0.7560265060        1.0350964172
H                -0.9555586234       -2.3230759140        2.6833069701
H                -2.0678253012       -3.0741496126        1.5181655367
H                 0.4836379739       -0.5066665563       -1.9127501437
H                 1.4386564921        0.9867322944       -2.2289767210
H                 2.0618106763       -0.6234645039       -2.7373529685
H                 0.9728771253       -3.2740663797        1.3028103246
H                -0.2267374505       -4.0774684174        0.2349662909
H                -0.1100719789       -4.5254091892        1.9964011513



