%nprocshared=20
%mem=5GB
#p m062x/cc-pVTZ opt=(calcfc,maxcycles=900,Tight) freq IOP(7/33=1,2/16=3) scf=(maxcycle=900) 

Gaussian input prepared by ASE

0 1
C                 1.3866162223       -1.1456623818        0.4943169501
C                 0.1296211297       -0.4598724879        0.9085863171
C                -0.1132844388        0.8708889372        0.2414634467
C                 2.1435455916       -0.4832437423       -0.6071754447
C                -1.4213804714        1.5148632930        0.6362856075
C                 3.3696641649       -1.1903254159       -1.0149204276
C                -1.6870064139        2.8276642050       -0.0535857530
H                 2.4064764089        0.5630374544       -0.2826777056
H                 1.4706017301       -0.3505928272       -1.4876897342
H                 1.1520515311       -2.1899532291        0.1976478889
H                 2.0623346282       -1.2396247294        1.3690852584
H                 0.1322801553       -0.3116685819        1.9997846317
H                -0.7371638533       -1.1233169394        0.7041829092
H                -0.0940895935        0.7330878845       -0.8529615017
H                 0.7257028359        1.5583120797        0.4753320768
H                -2.2587287433        0.8066730196        0.4021174022
H                -1.4515098661        1.6688371546        1.7283682232
H                 3.5584862693       -2.0920963820       -0.4025198417
H                 3.3191854740       -1.5244455450       -2.0935081946
H                 4.2667106851       -0.5422209329       -0.9213233135
H                -1.3466398355        2.8207888007       -1.0897717118
H                -1.1703565593        3.6753772266        0.4758622054
H                -2.7927959462        3.0492478855       -0.0498064717



