%nprocshared=20
%mem=5GB
#p m062x/cc-pVTZ opt=(calcfc,maxcycles=900,Tight) freq IOP(7/33=1,2/16=3) scf=(maxcycle=900) 

Gaussian input prepared by ASE

0 1
C                 1.4405716570       -1.1132348180        0.3878893199
C                 0.1711325232       -0.3676187404        0.6214369602
C                -1.0619252445       -1.2360391170        0.6015221159
C                 2.5587427990       -0.2634949918       -0.1147651787
C                -1.5062344863       -1.6779359772       -0.7728938338
C                 3.6761703549       -1.0247861407       -0.6990413668
C                -0.6622389177       -1.1840877993       -1.9190663023
H                 2.9443505699        0.3855910336        0.7213745935
H                 2.1644159787        0.4472046760       -0.8797275706
H                 1.2570578355       -1.9362898146       -0.3349382183
H                 1.7490253295       -1.6071483334        1.3321083894
H                 0.0526472783        0.4154054862       -0.1437555236
H                 0.2256173561        0.1628699373        1.5955358596
H                -1.8842313163       -0.6811135599        1.0842165228
H                -0.8946195000       -2.1272160746        1.2410197142
H                -1.5315246237       -2.7982856317       -0.8140933541
H                -2.5492082333       -1.3575060688       -0.9365721978
H                 4.1599684348       -1.6850459560        0.0451867798
H                 3.3229811017       -1.6784623777       -1.5508046313
H                 4.4512333252       -0.3419683974       -1.1071217773
H                 0.2522076667       -1.7706681794       -2.0154453559
H                -0.3617328871       -0.1111092935       -1.7632688969
H                -1.2279315853       -1.2506881389       -2.8924317530



