%nprocshared=20
%mem=5GB
#p m062x/cc-pVTZ opt=(calcfc,maxcycles=900,Tight) freq IOP(7/33=1,2/16=3) scf=(maxcycle=900) 

Gaussian input prepared by ASE

0 1
C                 1.4103481338       -1.1690786893        0.4541648724
C                 0.1916120496       -0.4246656187        0.8813593099
C                -1.0959312633       -1.2040449374        0.7824547857
C                 2.1877640520       -0.5229472802       -0.6427237784
C                -1.8353928911       -1.4640527915        2.0736926247
C                 2.6671536184        0.8395618090       -0.3540339005
C                -1.2101608257       -0.9073558055        3.3263295235
H                 1.5601406207       -0.5123507620       -1.5781981406
H                 3.0555406227       -1.1818743377       -0.8846619445
H                 1.1291296215       -2.1911860350        0.1228203052
H                 2.0833496472       -1.3144164025        1.3239865738
H                 0.0881524316        0.4933618765        0.2820206282
H                 0.3207345900       -0.0711275149        1.9261529157
H                -0.9057493238       -2.1691593785        0.2829465421
H                -1.7804898744       -0.6601449683        0.0993024663
H                -2.8731458856       -1.0480850506        1.9867449341
H                -1.9666351904       -2.5518472783        2.2030710754
H                 2.3512484531        1.1952147335        0.6447624070
H                 3.7958710569        0.8933322660       -0.3793639598
H                 2.2948026171        1.5752156376       -1.0981175492
H                -0.8304978926        0.1030956552        3.1700543728
H                -0.3542349079       -1.5518467067        3.6696688329
H                -1.9692629186       -0.8757268123        4.1597848128



