%nprocshared=20
%mem=5GB
#p m062x/cc-pVTZ opt=(calcfc,maxcycles=900,Tight) freq IOP(7/33=1,2/16=3) scf=(maxcycle=900) 

Gaussian input prepared by ASE

0 1
C                 1.3855791597       -1.1293756646        0.5144431369
C                 0.1115979844       -0.4658731537        0.9128147385
C                 0.0730772323       -0.0059011398        2.3487548167
C                 2.1387487928       -0.4588730687       -0.5847328238
C                 0.0686383041        1.4953048488        2.5162768023
C                 3.3492068150       -1.1967285736       -0.9846676316
C                 1.2243450920        2.0117401513        3.3333216412
H                 2.4153680196        0.5833754401       -0.2586414423
H                 1.4693609336       -0.3206852804       -1.4671041453
H                 1.1806588743       -2.1766746714        0.2066299353
H                 2.0547534316       -1.2122244169        1.3953436750
H                -0.7255440529       -1.1604776755        0.7413417153
H                -0.0912469500        0.3974038043        0.2443371201
H                 0.9345340676       -0.4336021134        2.8892060523
H                -0.8283035903       -0.4239600085        2.8426011034
H                 0.0893609240        1.9848501391        1.5075963169
H                -0.8751478428        1.8183839333        2.9876023630
H                 3.5318446709       -2.0719025617       -0.3330595867
H                 3.2699513431       -1.5902307657       -2.0412709275
H                 4.2556426074       -0.5567779382       -0.9364013011
H                 2.1745652980        1.6574533451        2.9318986237
H                 1.1430863506        1.6683431749        4.4016545077
H                 1.2473099694        3.1392787087        3.3369980600



