%nprocshared=20
%mem=5GB
#p m062x/cc-pVTZ opt=(calcfc,maxcycles=900,Tight) freq IOP(7/33=1,2/16=3) scf=(maxcycle=900) 

Gaussian input prepared by ASE

0 1
C                 1.4042828851       -1.1656928431        0.5206793839
C                 0.1518640435       -0.4613742711        0.9173479410
C                -0.8632244618       -0.2777613131       -0.1830445427
C                 2.1732927225       -0.4780137450       -0.5567004693
C                -1.2712125425       -1.5487076262       -0.8901116790
C                 3.3901545274       -1.1810717005       -0.9977719817
C                -2.7301495980       -1.8922368798       -0.7370881838
H                 2.4488206908        0.5501106377       -0.1876742744
H                 1.5019294080       -0.3038917978       -1.4311762937
H                 1.1578817658       -2.2026703145        0.2083642992
H                 2.0487974555       -1.2653799682        1.4180685557
H                 0.4037829771        0.5311878652        1.3223695287
H                -0.3183557179       -1.0205090180        1.7537193960
H                -0.4666109199        0.4417488866       -0.9193368154
H                -1.7585188137        0.2083937285        0.2565530676
H                -1.0418770910       -1.4517039751       -1.9835081681
H                -0.6651356488       -2.3996368072       -0.5353575417
H                 3.6085096968       -2.0764703841       -0.3858395038
H                 3.3006317529       -1.5301600669       -2.0690604187
H                 4.2832527869       -0.5229190982       -0.9457820712
H                -3.3681663005       -1.0503206712       -1.0085468456
H                -2.9691611795       -2.1809567304        0.3237482275
H                -3.0025167596       -2.7616283587       -1.4018127024



