%nprocshared=20
%mem=5GB
#p m062x/cc-pVTZ opt=(calcfc,maxcycles=900,Tight) freq IOP(7/33=1,2/16=3) scf=(maxcycle=900) 

Gaussian input prepared by ASE

0 1
C                 1.4112026683       -1.1075592150        0.5053425000
C                 0.2081987622       -0.3206941051        0.8997895190
C                 0.0572209492       -0.1070125195        2.3852281377
C                 2.1947408879       -0.5120349609       -0.6155699592
C                -1.1300467278       -0.7560210823        3.0567086575
C                 2.6863503223        0.8518198175       -0.3551711738
C                -2.0268375718       -1.5827521034        2.1722834934
H                 1.5635235736       -0.5180471513       -1.5486638964
H                 3.0520975637       -1.1886199579       -0.8456295000
H                 1.1065084836       -2.1364667897        0.2188339373
H                 2.0842137745       -1.2338865634        1.3781204396
H                -0.6927851841       -0.8115779368        0.4998567467
H                 0.2415566848        0.6737702963        0.4066533275
H                 0.0148977736        0.9776831587        2.5821229686
H                 0.9791153424       -0.4558906775        2.8946783500
H                -0.7624657213       -1.4080179104        3.8917563686
H                -1.7398336299        0.0233565947        3.5445513992
H                 2.3736693661        1.2204170999        0.6399397763
H                 3.8151770393        0.8995701530       -0.3868899117
H                 2.3094083364        1.5758029682       -1.1083347927
H                -1.4542359707       -2.1859154713        1.4666636397
H                -2.7322242893       -0.9296433946        1.5876997327
H                -2.6554117375       -2.2790441078        2.7983474381



