%nprocshared=20
%mem=5GB
#p m062x/cc-pVTZ opt=(calcfc,maxcycles=900,Tight) freq IOP(7/33=1,2/16=3) scf=(maxcycle=900) 

Gaussian input prepared by ASE

0 1
C                 1.4057229752       -0.7799298994        0.8977855437
C                -0.0167001094       -0.3572203025        1.0391811418
C                -1.0296580665       -1.4620505491        0.8711087959
C                 2.0833831530       -0.2193044650       -0.3069973520
C                -0.6923827093       -2.4313802487       -0.2371998285
C                 3.5040546591       -0.5884772236       -0.4294357698
C                -1.7543435868       -3.4713643196       -0.4833666358
H                 1.9947042861        0.9037411281       -0.3006416945
H                 1.5355367578       -0.5538557478       -1.2200662905
H                 1.4653627990       -1.8882711799        0.8577955781
H                 1.9778377361       -0.4861420947        1.8016756400
H                -0.2447653500        0.4428754608        0.3177116375
H                -0.1700951143        0.1035547465        2.0378862167
H                -2.0218926841       -1.0158736056        0.6880237375
H                -1.1193404962       -2.0280818098        1.8212195440
H                -0.5155444641       -1.8632462959       -1.1877114733
H                 0.2636418926       -2.9249102890        0.0071467080
H                 4.1059967621       -0.1687723657        0.3984486889
H                 3.6376683809       -1.7106798389       -0.4108725367
H                 3.9320662171       -0.2130333348       -1.3830291279
H                -2.6393949119       -3.0255748788       -0.9389255743
H                -2.0662066215       -3.9728417524        0.4742979255
H                -1.3639997145       -4.2685435672       -1.1790828197



