%nprocshared=20
%mem=5GB
#p m062x/cc-pVTZ opt=(calcfc,maxcycles=900,Tight) freq IOP(7/33=1,2/16=3) scf=(maxcycle=900) 

Gaussian input prepared by ASE

0 1
C                 1.4076974164       -1.1639497673        0.5355964690
C                 0.1667476260       -0.4673332682        0.9791419806
C                -1.1127582307       -1.2062033535        0.6759625454
C                 2.1312151029       -0.4850379461       -0.5782378617
C                -2.0525011381       -0.5039562874       -0.2755809723
C                 3.3579963736       -1.1749180410       -1.0125883981
C                -1.4607820595       -0.1627221660       -1.6184710186
H                 2.3800827116        0.5665897893       -0.2599930511
H                 1.4387944941       -0.3665957791       -1.4455787830
H                 1.1688285490       -2.2047512168        0.2302270091
H                 2.1011293202       -1.2632314056        1.3957936738
H                 0.1267639103        0.5386736807        0.5330068539
H                 0.2237945342       -0.2977145531        2.0751486602
H                -1.6602712805       -1.3867768049        1.6165720440
H                -0.8844054514       -2.2131440013        0.2696741010
H                -2.9466161238       -1.1616202477       -0.4354460644
H                -2.4355397805        0.4187677861        0.1925235593
H                 3.5670456647       -2.0815517905       -0.4140963111
H                 3.2908768468       -1.4992816905       -2.0932451993
H                 4.2464912827       -0.5133423747       -0.9326713522
H                -0.8418260583       -0.9701347800       -2.0116075843
H                -0.8240223320        0.7631453476       -1.5622040067
H                -2.2806469401        0.0378601461       -2.3664499044



