%nprocshared=20
%mem=5GB
#p m062x/cc-pVTZ opt=(calcfc,maxcycles=900,Tight) freq IOP(7/33=1,2/16=3) scf=(maxcycle=900) 

Gaussian input prepared by ASE

0 1
C                 1.3887502047       -1.0801517816        0.3124116335
C                 0.2225650417       -0.2479977455        0.7241097946
C                 0.1717505451        1.1565327370        0.1766666280
C                 1.9674959007       -0.7524425363       -1.0227610482
C                 1.0967645593        2.1510625632        0.8376978213
C                 2.3427018826       -1.9111289062       -1.8511652897
C                 0.9935261806        2.1724834581        2.3406312372
H                 2.8667190288       -0.0915919232       -0.8684562426
H                 1.2459377232       -0.1055300526       -1.5764876549
H                 1.0719785282       -2.1444135382        0.3364765157
H                 2.1856021451       -1.0064773803        1.0806843374
H                 0.1730993760       -0.2086798006        1.8235153054
H                -0.7082342650       -0.7615812575        0.4030177098
H                -0.8611744619        1.5314943721        0.2746117250
H                 0.3928920838        1.1195736966       -0.9100141941
H                 2.1584561904        1.9388259845        0.5456586887
H                 0.8626538633        3.1564460982        0.4482670837
H                 2.1102742016       -2.8768642406       -1.3641213729
H                 1.7943576903       -1.8985739287       -2.8394450827
H                 3.4285418039       -1.9132510099       -2.0844879461
H                 1.4382294581        1.2790924608        2.7807102539
H                -0.0804524771        2.2240208113        2.6719518130
H                 1.5285966116        3.0711863871        2.7624330617



