%nprocshared=20
%mem=5GB
#p m062x/cc-pVTZ opt=(calcfc,maxcycles=900,Tight) freq IOP(7/33=1,2/16=3) scf=(maxcycle=900) 

Gaussian input prepared by ASE

0 1
C                 1.3680506883       -1.1476330996        0.5019034093
C                 0.1474768944       -0.4112130543        0.9376196938
C                -0.6111220622       -1.1241986297        2.0290230116
C                 2.1583011238       -0.4751040067       -0.5696538166
C                 0.2260807301       -1.3775889704        3.2605211074
C                 1.4573403503       -0.2999321969       -1.8532254161
C                -0.4926576024       -2.1006427260        4.3698156336
H                 3.0972213065       -1.0760691094       -0.7321517424
H                 2.5149045025        0.5127708940       -0.1919074324
H                 1.0709914570       -2.1612974954        0.1586588814
H                 2.0242335097       -1.3112919239        1.3812689613
H                -0.5225909884       -0.2647365875        0.0760868116
H                 0.4277724420        0.6059415727        1.2841544985
H                -0.9796666388       -2.0866625600        1.6353713662
H                -1.5092649707       -0.5312147040        2.2989380723
H                 1.1245244967       -1.9756673337        2.9561834500
H                 0.6106277337       -0.4190798519        3.6486500056
H                 0.4286267608       -0.7062274387       -1.8297378169
H                 1.3708119524        0.7920387967       -2.1318795308
H                 1.9965456574       -0.8051597726       -2.6823786187
H                -1.1836660798       -2.8525677945        3.9868091120
H                -1.0791094618       -1.3808734001        5.0053200900
H                 0.2465039552       -2.6201324021        5.0448376838



