%nprocshared=20
%mem=5GB
#p m062x/cc-pVTZ opt=(calcfc,maxcycles=900,Tight) freq IOP(7/33=1,2/16=3) scf=(maxcycle=900) 

Gaussian input prepared by ASE

0 1
C                 1.3604569626       -1.1300391544        0.4300269487
C                 0.1216599601       -0.4076539595        0.8368502110
C                -0.9391452453       -0.3700947870       -0.2347204282
C                 2.2836260042       -0.3496244219       -0.4438939778
C                -1.2707855332       -1.7373016300       -0.7846867071
C                 1.8177730170       -0.1242761775       -1.8229466900
C                -1.2117018405       -1.7961083958       -2.2890060720
H                 3.2782012194       -0.8781717177       -0.4682586524
H                 2.4876711869        0.6314289722        0.0476901160
H                 1.0627305685       -2.0747699441       -0.0723864561
H                 1.9111028469       -1.4333417242        1.3440513145
H                 0.3623848345        0.6229213536        1.1412369531
H                -0.2988163244       -0.9032210885        1.7373325344
H                -0.5895805706        0.2795047104       -1.0550548547
H                -1.8519208123        0.1095995557        0.1750098024
H                -0.5303772133       -2.4735676639       -0.3757512755
H                -2.2647128838       -2.0626710269       -0.4332562770
H                 0.7242858197       -0.2581795842       -1.9241137155
H                 2.0603869787        0.9242705104       -2.1682353213
H                 2.3055323898       -0.8248528249       -2.5334222036
H                -0.2838123350       -1.3414924795       -2.6381814637
H                -2.0717198421       -1.2409508930       -2.7559415750
H                -1.2523428765       -2.8639585937       -2.6494618404



