%nprocshared=20
%mem=5GB
#p m062x/cc-pVTZ opt=(calcfc,maxcycles=900,Tight) freq IOP(7/33=1,2/16=3) scf=(maxcycle=900) 

Gaussian input prepared by ASE

0 1
O                 2.0489984999        1.9888801443        1.0239808317
O                 0.1931099261        0.2531922204       -0.3497990356
C                 2.1057824240        2.7023194439       -0.1932525937
C                 0.8876193170        3.6175015103       -0.3178830871
C                 2.3324907382        1.8759421072       -1.4162707447
C                 2.1226156091        0.6150139441        0.9928818753
C                 1.2710082804       -0.1775746843        0.4092550478
H                 3.0006313696        3.3759097360       -0.0843136526
H                 0.1233136925        3.3674459931        0.4473103595
H                 1.1693687399        4.6770521528       -0.1783993290
H                 0.3981173909        3.5297360723       -1.3255117054
H                 1.4068222694        1.7984667205       -2.0595601977
H                 2.6434721829        0.8433500203       -1.1533665547
H                 3.1414068890        2.3234846416       -2.0604150771
H                 2.9364689928        0.2152771058        1.6186533033
H                 1.3570299962       -1.2536296776        0.4428499272
H                 0.1795787649        1.2514669793       -0.2787559969



