%nprocshared=20
%mem=5GB
#p m062x/cc-pVTZ opt=(calcfc,maxcycles=900,Tight) freq IOP(7/33=1,2/16=3) scf=(maxcycle=900) 

Gaussian input prepared by ASE

0 1
O                 3.2143241934        1.0457777226        2.8194606878
O                 0.5733938180        1.2245206041        1.2182529518
C                 2.3620924010        1.9364333303        3.5081629606
C                 3.2176002354        2.7253975696        4.4994520732
C                 1.2036601635        1.2630159536        4.1674150731
C                 2.6222558420        0.1483074969        1.9604512459
C                 1.5232792049        0.2150666430        1.2663002410
H                 1.9608767648        2.6918236878        2.7768917174
H                 3.6329284432        2.0684991393        5.2920420000
H                 4.0607055545        3.2050708681        3.9697606843
H                 2.6095518557        3.5280532468        4.9981016212
H                 1.5466712457        0.4571571418        4.8812924035
H                 0.5280959522        0.7927782542        3.4227245384
H                 0.5989469283        2.0077823832        4.7583519975
H                 3.2640608673       -0.7381229534        1.8337069507
H                 1.2432118149       -0.6131753628        0.6322654337
H                 0.9111472382        1.9755980318        1.7871009321



