%nprocshared=20
%mem=5GB
#p m062x/cc-pVTZ opt=(calcfc,maxcycles=900,Tight) freq IOP(7/33=1,2/16=3) scf=(maxcycle=900) 

Gaussian input prepared by ASE

0 1
O                 3.9660706168       -1.4741373388        2.7210109213
O                 1.0884391601        0.1545582790        1.1484062120
C                 3.5108569627       -2.3855708194        3.6987362403
C                 2.4206359602       -1.7987718940        4.5954510872
C                 4.6914151712       -2.8824284244        4.4665151127
C                 3.0108854887       -1.0683247222        1.8172230860
C                 2.0016707746       -0.2934298979        2.0912225789
H                 3.0570370733       -3.2625895237        3.1590771718
H                 2.3425051787       -0.6994442069        4.4628385785
H                 1.4311725428       -2.2304716216        4.3586315130
H                 2.6290696282       -1.9975322959        5.6815818569
H                 4.7712644735       -2.4081327886        5.4889404688
H                 5.6327478107       -2.6577359631        3.9229337942
H                 4.6439973920       -3.9976119702        4.6203942650
H                 3.2321648503       -1.3741586652        0.7822169056
H                 1.7627664946        0.0527884117        3.0859488362
H                 1.4136497498       -0.1562415770        0.2543009488



