%nprocshared=20
%mem=5GB
#p m062x/cc-pVTZ opt=(calcfc,maxcycles=900,Tight) freq IOP(7/33=1,2/16=3) scf=(maxcycle=900) 

Gaussian input prepared by ASE

0 1
O                 0.6333397854       -2.9270890483        1.5352175328
O                 1.1681672815       -1.8487640138       -1.0596626201
C                 0.5792023828       -3.2754600502        2.9025448698
C                 0.0570629138       -2.1241853406        3.7621664424
C                 1.8799376885       -3.8094733931        3.4055229749
C                 1.4847128252       -1.8726215899        1.2961416320
C                 1.7297053642       -1.3774218181        0.1176646947
H                -0.1822940138       -4.1022183228        2.9567685418
H                 0.7303996740       -1.2431866670        3.7104866170
H                -0.9469603872       -1.8082042201        3.4251513646
H                -0.0154192386       -2.4421131736        4.8374796854
H                 2.6895930125       -3.0220642912        3.3718921488
H                 2.2195012298       -4.6746752632        2.7987307408
H                 1.7840578579       -4.1489580990        4.4756252002
H                 1.9710426895       -1.4423375177        2.1861279411
H                 2.3983042830       -0.5370040332        0.0032263592
H                 1.5623471610       -1.3071587084       -1.8033484514



