%nprocshared=20
%mem=5GB
#p m062x/cc-pVTZ opt=(calcfc,maxcycles=900,Tight) freq IOP(7/33=1,2/16=3) scf=(maxcycle=900) 

Gaussian input prepared by ASE

0 1
O                 0.1535304957       -1.4277739119       -0.3392818366
O                 3.1673646139       -1.4666613914        1.6972957900
C                -0.5566538607       -0.4230243583       -1.0320976666
C                -0.0109912040        0.9950005553       -0.8633672913
C                -2.0065562950       -0.5074211444       -0.6846359081
C                 1.2583978620       -1.0140527097        0.3692362152
C                 2.0598574522       -1.8539563844        0.9576887557
H                -0.4594922870       -0.6650928384       -2.1267705353
H                -0.0500722622        1.3354749583        0.1924554741
H                 1.0324044290        1.0665710339       -1.2207036028
H                -0.6312444622        1.7066978952       -1.4727958204
H                -2.1947767137       -0.2065504743        0.3880876275
H                -2.3801530457       -1.5441074111       -0.8179833581
H                -2.6207440177        0.1710086253       -1.3419547567
H                 1.4158480049        0.0744054996        0.4340816387
H                 1.9408756388       -2.9269665635        0.9274367538
H                 3.1959184169       -0.4663976951        1.6763215630



