%nprocshared=20
%mem=5GB
#p m062x/cc-pVTZ opt=(calcfc,maxcycles=900,Tight) freq IOP(7/33=1,2/16=3) scf=(maxcycle=900) 

Gaussian input prepared by ASE

0 1
O                 1.8922416587       -2.4696960642        2.6491588352
O                 2.2894645448        0.2900289361        3.3295066434
C                 0.6465917828       -2.7541709685        3.2502475771
C                -0.4406905770       -3.0490731072        2.2168734296
C                 0.2470367613       -1.6846088075        4.2127766044
C                 1.8369772221       -1.4330822107        1.7456808218
C                 2.0549705249       -0.1860624925        2.0481255150
H                 0.8283679858       -3.6951209869        3.8400922049
H                -0.0830529923       -2.8137882164        1.1926916889
H                -0.7357210993       -4.1139004010        2.2410776748
H                -1.3637941779       -2.4366093234        2.4050175115
H                -0.1356470576       -0.7656570239        3.6782052022
H                 1.1145149238       -1.3712454210        4.8303197329
H                -0.5703536511       -2.0362692257        4.9039852878
H                 1.6692410449       -1.7366167331        0.6999905624
H                 2.0658937781        0.5975022639        1.3049366729
H                 2.1696949869       -0.4872842294        3.9485560726



