%nprocshared=20
%mem=5GB
#p m062x/cc-pVTZ opt=(calcfc,maxcycles=900,Tight) freq IOP(7/33=1,2/16=3) scf=(maxcycle=900) 

Gaussian input prepared by ASE

0 1
O                 0.2660799360        0.2489959029       -0.5680626136
O                 2.4617791999       -2.1956954827        0.9946952426
C                 0.0454668238        1.6115465207       -0.2702994048
C                -0.9815546225        2.1646043115       -1.2584119281
C                 1.3131642529        2.4008270020       -0.2632915375
C                 1.1676859564       -0.3411413721        0.2879394546
C                 1.5673644693       -1.5707658868        0.1384981975
H                -0.4059897691        1.6705466027        0.7588031873
H                -1.4261956977        1.3431303978       -1.8581508574
H                -1.7999510045        2.6855830524       -0.7289834310
H                -0.5129627105        2.8968467129       -1.9703620848
H                 1.9147223438        2.1992969569       -1.1982778338
H                 1.9496905840        2.1483970878        0.6103147000
H                 1.1020279684        3.5070197777       -0.2269515821
H                 1.5348014164        0.2924889089        1.1110285482
H                 1.2395419311       -2.2194429455       -0.6603592096
H                 2.6980823659       -1.5300196473        1.7037926941



