%nprocshared=20
%mem=5GB
#p m062x/cc-pVTZ opt=(calcfc,maxcycles=900,Tight) freq IOP(7/33=1,2/16=3) scf=(maxcycle=900) 

Gaussian input prepared by ASE

0 1
O                -0.0955310833       -1.5618746382        2.0739505039
O                 2.6389804544        0.2295409135        0.4325317666
C                -0.9984042797       -0.5131611624        2.3548371304
C                -1.3341317271       -0.5085856252        3.8462386442
C                -2.2118480888       -0.6224717387        1.4913124462
C                 1.0481381160       -1.2058927033        1.3963130015
C                 1.4423693047       -0.0028482253        1.0941246433
H                -0.4970536406        0.4671885207        2.1226556377
H                -1.2666748844       -1.5291864312        4.2775568901
H                -0.6371723256        0.1421466455        4.4050598362
H                -2.3759895529       -0.1282147888        4.0264624982
H                -2.6884165461       -1.6433804254        1.5768333725
H                -1.9598288773       -0.4555516909        0.4232775663
H                -2.9883547876        0.1399642858        1.7833573662
H                 1.6481654515       -2.0943102391        1.1425055373
H                 0.8711365301        0.8801797645        1.3398427469
H                 2.7210592184        1.2209905444        0.3226527152



