%nprocshared=20
%mem=5GB
#p m062x/cc-pVTZ opt=(calcfc,maxcycles=900,Tight) freq IOP(7/33=1,2/16=3) scf=(maxcycle=900) 

Gaussian input prepared by ASE

0 1
O                -0.1075074373       -1.4281150176        1.9133561179
O                 0.6595504493       -1.7452850659       -0.8030926001
C                -1.0279673689       -0.4643350896        2.3800026914
C                -0.5919981155        0.9850188044        2.1647901684
C                -1.4080019903       -0.7412770033        3.7973757626
C                 1.0724052558       -0.9481809173        1.3924297738
C                 1.4511864295       -1.1411134306        0.1622452682
H                -1.9512565980       -0.6166669931        1.7549601323
H                 0.4834179934        1.0426998404        1.8957828249
H                -1.1725000380        1.4615852687        1.3539955315
H                -0.7399968927        1.5934867456        3.0977925619
H                -0.8881443517       -0.0499297023        4.5243371199
H                -1.1542929702       -1.7839607665        4.0811305739
H                -2.5166127922       -0.6061391635        3.9466454320
H                 1.7562944901       -0.4738777492        2.1142807072
H                 2.4237508979       -0.8263757344       -0.1862963181
H                 1.2104289814       -1.8007274110       -1.6369041431



