%nprocshared=20
%mem=5GB
#p m062x/cc-pVTZ opt=(calcfc,maxcycles=900,Tight) freq IOP(7/33=1,2/16=3) scf=(maxcycle=900) 

Gaussian input prepared by ASE

0 1
O                 1.7586127727       -0.6578186410        3.7912323473
O                 0.3865422304        0.8394209426        1.5115488978
C                 0.7542839207        0.2370805452        4.2205996305
C                 1.2863437941        1.6641566677        4.3524266445
C                 0.1846136085       -0.2488738517        5.5126497919
C                 2.0465460055       -0.6330263985        2.4457306721
C                 1.4789002501       -0.0131015523        1.4519884865
H                -0.0709077131        0.2455403853        3.4555287784
H                 1.7205255310        2.0239130689        3.3962501906
H                 0.4713075042        2.3502056030        4.6466012942
H                 2.0856822449        1.7252714434        5.1397978183
H                 0.9422247423       -0.1934292226        6.3490929359
H                -0.1576575229       -1.3018679829        5.4343661902
H                -0.6995206055        0.3808896003        5.8147528638
H                 2.8961083997       -1.2990055392        2.2256119028
H                 1.8638137966       -0.1581613457        0.4533784936
H                 0.2769030506        1.2243009196        0.5941453042



