%nprocshared=20
%mem=5GB
#p m062x/cc-pVTZ opt=(calcfc,maxcycles=900,Tight) freq IOP(7/33=1,2/16=3) scf=(maxcycle=900) 

Gaussian input prepared by ASE

0 1
O                 0.1506406559        0.7914248947        1.6835296929
O                 1.8651980239       -0.6758547421        3.4549838973
C                 0.1247294106        2.1827577627        1.9231099876
C                 0.9520151129        2.9702041758        0.9069708025
C                 0.4973354681        2.4949900611        3.3351104400
C                 1.4013182871        0.3233730677        1.3509219505
C                 2.1735118287       -0.3678697379        2.1382926180
H                -0.9508156639        2.4826209302        1.7829990189
H                 1.4093209060        2.2835954979        0.1642381488
H                 0.3323095635        3.7036250893        0.3596639273
H                 1.7862894874        3.5356000452        1.4039055255
H                 1.5171775843        2.0849625650        3.5968075562
H                -0.2358940210        2.0563482969        4.0436599507
H                 0.5214172464        3.6077574108        3.5104115330
H                 1.7212909116        0.5310934897        0.3173811938
H                 3.1215430645       -0.7511295393        1.7907708195
H                 2.6611809099       -1.1476955584        3.8365074081



