%nprocshared=20
%mem=5GB
#p m062x/cc-pVTZ opt=(calcfc,maxcycles=900,Tight) freq IOP(7/33=1,2/16=3) scf=(maxcycle=900) 

Gaussian input prepared by ASE

0 1
O                 4.0663835656       -1.4543968253        2.7942558880
O                 1.4287722329       -0.1514758112        3.2882431450
C                 3.5341478216       -2.3665956054        3.7315369335
C                 4.6492849296       -2.8007786618        4.6828342760
C                 2.8438477573       -3.5203447680        3.0815998205
C                 3.1656742804       -1.0066880862        1.8550143703
C                 2.0216025711       -0.4223264651        2.0639963548
H                 2.7783247190       -1.8264520042        4.3666137301
H                 5.4828649757       -3.3011766510        4.1471496494
H                 5.0567168366       -1.9219290357        5.2149137774
H                 4.2476817259       -3.5144317308        5.4522785585
H                 3.5545142768       -4.1266948803        2.4460067830
H                 2.0159696467       -3.1748272215        2.4279103306
H                 2.4088138504       -4.2096581934        3.8595163208
H                 3.5413644209       -1.1108474424        0.8246045020
H                 1.4005354307       -0.0985636885        1.2418795920
H                 2.0855248683       -0.4123174139        3.9970592948



