%nprocshared=20
%mem=5GB
#p m062x/cc-pVTZ opt=(calcfc,maxcycles=900,Tight) freq IOP(7/33=1,2/16=3) scf=(maxcycle=900) 

Gaussian input prepared by ASE

0 1
O                 0.2427090163       -0.4498234940        3.0373124931
O                 0.1618569157       -0.8843126726        0.2082961404
C                 0.2901266351        0.2188839990        4.2800751889
C                -0.2015389653        1.6606184138        4.1509274261
C                 1.6313944970        0.1305554083        4.9306657997
C                 1.2018477785       -0.0050053034        2.1563558698
C                 1.1865406526       -0.2284405958        0.8742114115
H                -0.4560229101       -0.3248695182        4.9234562414
H                -1.1973844316        1.6823103768        3.6609956697
H                -0.2893645617        2.1339712470        5.1457690114
H                 0.5098529579        2.2728756952        3.5331144341
H                 2.4377052391        0.4492155284        4.2060937984
H                 1.8518504039       -0.9091204066        5.2508967835
H                 1.7004228652        0.8009200143        5.8336652235
H                 2.0561214122        0.5167239662        2.6165209250
H                 1.9968904545        0.1136250413        0.2475161119
H                 0.4357588753       -0.9480437863       -0.7522759608



