%nprocshared=20
%mem=5GB
#p m062x/cc-pVTZ opt=(calcfc,maxcycles=900,Tight) freq IOP(7/33=1,2/16=3) scf=(maxcycle=900) 

Gaussian input prepared by ASE

0 1
O                 3.1957492941        0.8307745568        2.9228107917
O                 0.8736959588        1.5798470854        1.1405842967
C                 2.3929544096        1.7594289950        3.6206636184
C                 2.6951736117        3.1935859446        3.1860721691
C                 2.5666410729        1.5771782923        5.0926307323
C                 2.5340766177        0.0524828380        2.0006685956
C                 1.5341171661        0.3633587915        1.2276942838
H                 1.3131190593        1.5608288528        3.3739658076
H                 3.7392216624        3.4766805908        3.4351363155
H                 2.5499643660        3.3158529721        2.0972879531
H                 2.0051947353        3.9088583272        3.7104240633
H                 3.6540131265        1.6550321799        5.3896941250
H                 2.1983073094        0.5810553502        5.4153439376
H                 1.9963177772        2.3603873162        5.6678494241
H                 2.9802919977       -0.9516259126        1.9207048428
H                 1.1137104436       -0.3683021965        0.5536371006
H                 1.4065056731        2.2396804840        1.6721070098



