%nprocshared=20
%mem=5GB
#p m062x/cc-pVTZ opt=(calcfc,maxcycles=900,Tight) freq IOP(7/33=1,2/16=3) scf=(maxcycle=900) 

Gaussian input prepared by ASE

0 1
O                 0.3287807008        1.2051948416        0.9260629407
O                 1.7952665098        0.3958641810        3.5248660350
C                 0.3028895139        2.2884150033        1.8315136504
C                 1.6989638991        2.8693996316        2.0561144135
C                -0.4647541954        1.9985643972        3.0792232808
C                 1.1335125802        0.1281857055        1.2199215514
C                 1.7445040135       -0.2574822212        2.3025118565
H                -0.2909681640        3.0663131407        1.2760374977
H                 2.4706336440        2.0873390867        1.8976247643
H                 1.8953422036        3.6889842466        1.3411300498
H                 1.8251275547        3.2744644400        3.0966121660
H                 0.1849686867        1.5904969719        3.9086972242
H                -1.2693196551        1.2594064940        2.8832781223
H                -0.9491454412        2.9394035327        3.4661966934
H                 1.2164629238       -0.5188861746        0.3321411887
H                 2.3184563630       -1.1720877175        2.2801917606
H                 2.1641586151       -0.2593291184        4.1854892674



