%nprocshared=20
%mem=5GB
#p m062x/cc-pVTZ opt=(calcfc,maxcycles=900,Tight) freq IOP(7/33=1,2/16=3) scf=(maxcycle=900) 

Gaussian input prepared by ASE

0 1
O                 3.9895537166       -1.8851325094        2.4275028919
O                 1.1854199153       -0.7517489103        0.4210425728
C                 4.9380828916       -1.1153210791        3.1357119189
C                 5.9503897232       -2.0534190452        3.7931458810
C                 4.2878182195       -0.1896868903        4.1106102545
C                 3.0916594237       -1.0887229460        1.7541436963
C                 2.0668323766       -1.5698255169        1.1120207410
H                 5.4908606291       -0.4885030957        2.3821323288
H                 5.5869869308       -3.1018667184        3.7630170395
H                 6.9268704226       -2.0153207621        3.2768901454
H                 6.1198775280       -1.7795373108        4.8696648170
H                 4.2954487718       -0.6074065822        5.1604378135
H                 3.2296535746       -0.0067604669        3.8297188202
H                 4.8119232131        0.8073514436        4.1387189100
H                 3.3061271546       -0.0084639349        1.7820866960
H                 1.8396665480       -2.6249216391        1.0721389249
H                 0.5259218493       -1.3527397802       -0.0324494063



