%nprocshared=20
%mem=5GB
#p m062x/cc-pVTZ opt=(calcfc,maxcycles=900,Tight) freq IOP(7/33=1,2/16=3) scf=(maxcycle=900) 

Gaussian input prepared by ASE

0 1
O                 1.5174479695        0.2414214675        3.5673227174
O                 1.9907194419       -2.4576741940        2.8236369070
C                 1.4961023427        1.6390740592        3.7672948585
C                 0.7048369874        1.9339133146        5.0416500997
C                 0.9712241169        2.3982685663        2.5933288844
C                 2.0720128890       -0.1312969293        2.3642293267
C                 2.2747802045       -1.3682470972        2.0136701336
H                 2.5541020741        1.9814428043        3.9398243368
H                -0.3306226313        1.5405022472        4.9691037690
H                 1.1866788286        1.4673867471        5.9200961264
H                 0.6387895957        3.0408896057        5.2229552928
H                -0.1207612680        2.1793126618        2.4027715411
H                 1.5412551248        2.1383823292        1.6770329258
H                 1.0746778518        3.5068536194        2.7662395106
H                 2.3159553450        0.6926828963        1.6748193797
H                 2.6890724936       -1.6097383800        1.0459581106
H                 2.2212939643       -3.2771522253        2.2972588624



