%nprocshared=20
%mem=5GB
#p m062x/cc-pVTZ opt=(calcfc,maxcycles=900,Tight) freq IOP(7/33=1,2/16=3) scf=(maxcycle=900) 

Gaussian input prepared by ASE

0 1
O                 0.4571019811       -0.7633049775       -0.2851878095
O                 1.4789515858       -0.0706300645        0.1311919575
C                -0.7065232087       -0.0724109572       -0.0171352767
H                -0.7260694460        0.3057225615        1.0235302683
H                -1.5584846570       -0.7580025734       -0.1528247989
H                -0.8498271769        0.7910299720       -0.6910744316
H                 1.6779762152        0.5457292697       -0.6208416109



