%nprocshared=20
%mem=5GB
#p m062x/cc-pVTZ opt=(calcfc,maxcycles=900,Tight) freq IOP(7/33=1,2/16=3) scf=(maxcycle=900) 

Gaussian input prepared by ASE

0 1
O                 0.4856360001       -0.8289663457       -0.1262779323
O                 1.5012168936       -0.0333260712       -0.3076594702
C                -0.6589886337       -0.0687684293       -0.0032175182
H                -0.7451190664        0.4058093368        0.9936321608
H                -1.5254448788       -0.7339094298       -0.1485682825
H                -0.6974599282        0.7309803385       -0.7642576735
H                 2.2481642349       -0.6847759690       -0.3600695833



