%nprocshared=20
%mem=5GB
#p m062x/cc-pVTZ opt=(calcfc,maxcycles=900,Tight) freq IOP(7/33=1,2/16=3) scf=(maxcycle=900) 

Gaussian input prepared by ASE

0 1
O                 0.1545400522       -0.6474912195        1.3844998518
O                 0.5012175530        2.8003980748        0.1598148764
C                -1.1855409954       -0.8303858225        0.9217913905
C                 0.6432891423        0.6165544394        1.0797113036
C                -0.0161425403        1.5565473286        0.4452546508
H                -1.8781153474       -0.0771551370        1.3965695295
H                -1.2415235942       -0.7122342028       -0.1978504511
H                -1.4942613376       -1.8381740710        1.2002599821
H                 1.6637900129        0.7493336986        1.4337957731
H                -1.0183522913        1.4414944511        0.0914022233
H                 1.4482070881        2.8193286532        0.5297716220



