%nprocshared=20
%mem=5GB
#p m062x/cc-pVTZ opt=(calcfc,maxcycles=900,Tight) freq IOP(7/33=1,2/16=3) scf=(maxcycle=900) 

Gaussian input prepared by ASE

0 1
O                 0.1537718655       -0.7966586429        0.4987518122
O                 2.3136030569        2.1144049432        0.0764494230
C                -1.2044543299       -0.8855748068        0.9354236430
C                 0.6012270146        0.5180854754        0.4702044329
C                 1.8262289500        0.8271074044        0.1168664564
H                -1.6252692640        0.1409703909        1.1392611480
H                -1.8213305003       -1.3833868000        0.1339632761
H                -1.2573878242       -1.4875973300        1.8427587998
H                -0.1335179933        1.2663269075        0.7612588996
H                 2.5552873178        0.1006662572       -0.1723224886
H                 1.5566727317        2.7276112604        0.3680828151



