%nprocshared=20
%mem=5GB
#p m062x/cc-pVTZ opt=(calcfc,maxcycles=900,Tight) freq IOP(7/33=1,2/16=3) scf=(maxcycle=900) 

Gaussian input prepared by ASE

0 1
O                 0.1912520178       -0.7811336882        1.0820413710
O                -0.8001540545        1.5953341024        2.5098929459
C                -1.2084464273       -0.8992520962        0.8169770875
C                 0.6572640835        0.5197325973        0.9400455193
C                 0.2280531807        1.5727737951        1.5941512116
H                -1.4500705543       -0.5484067243       -0.2275109623
H                -1.4746657054       -1.9907894141        0.9084390446
H                -1.8003398123       -0.3262423520        1.5309884416
H                 1.5096770711        0.5969387985        0.2678405869
H                 0.6543715094        2.5407123399        1.4385210536
H                -1.0989365982        0.6316628307        2.6367086058



