%nprocshared=20
%mem=5GB
#p m062x/cc-pVTZ opt=(calcfc,maxcycles=900,Tight) freq IOP(7/33=1,2/16=3) scf=(maxcycle=900) 

Gaussian input prepared by ASE

0 1
C                 1.3677046186       -1.1109886882        0.4560092954
C                 0.1499750232       -0.3911719222        0.9260752543
C                 0.1485913728       -0.1158815913        2.4090436725
C                 2.1417595998       -0.4875159384       -0.6562616412
C                 0.1920976289       -1.3474021340        3.2826380283
C                 2.6483363926        0.8663302059       -0.3732991164
C                 1.4259759850       -2.1935835709        3.1053048716
H                 1.5330866282       -0.4767206937       -1.6041732491
H                 2.9957427557       -1.1771019495       -0.8585955801
H                 1.0764858262       -2.1393155778        0.1538306677
H                 2.0695427865       -1.2337166967        1.3063062447
H                -0.7557183509       -0.9607404727        0.6653140445
H                 0.0239744152        0.5723192965        0.3884285131
H                -0.7605568406        0.4580823188        2.6563056711
H                 1.0049214331        0.5454832581        2.6548894041
H                 0.1074210917       -1.0291978140        4.3545970922
H                -0.7037658098       -1.9580764202        3.0782712372
H                 2.3533420837        1.2265047888        0.6302604322
H                 3.7782187883        0.8747235186       -0.4021305950
H                 2.2886568592        1.6106120971       -1.1150318173
H                 2.3093464603       -1.5757901674        2.9392749528
H                 1.3178622120       -2.8597558454        2.2050907344
H                 1.6155870806       -2.8647411674        3.9915775232



