%nprocshared=20
%mem=5GB
#p m062x/cc-pVTZ opt=(calcfc,maxcycles=900,Tight) freq IOP(7/33=1,2/16=3) scf=(maxcycle=900) 

Gaussian input prepared by ASE

0 1
C                 1.3823626740       -1.1384609171        0.5292602468
C                 0.1229005750       -0.4374950245        0.9092149660
C                -0.1117068759        0.8812036713        0.2156912794
C                 2.1751026034       -0.5098865837       -0.5668618868
C                -1.4170281553        1.5130948207        0.6382462140
C                 2.6884607708        0.8513864787       -0.3366744383
C                -1.6952665987        2.8232033693       -0.0517717782
H                 1.5290450546       -0.5077083812       -1.4897598437
H                 3.0287890859       -1.1842965342       -0.8161523366
H                 1.1186545400       -2.1661299261        0.2007318190
H                 2.0290024981       -1.2811992521        1.4192751825
H                 0.0923800161       -0.2509013007        1.9940820121
H                -0.7412398952       -1.1018540590        0.6967442126
H                -0.0959256038        0.7360631531       -0.8778391140
H                 0.7292326101        1.5671548062        0.4468548175
H                -2.2485500056        0.7924700570        0.4219323164
H                -1.4023588438        1.6683377293        1.7304662562
H                 2.3933988198        1.2650666383        0.6460189577
H                 3.8167447793        0.8891501537       -0.3922174933
H                 2.3008260169        1.5599042212       -1.0990616143
H                -1.3005512397        2.8175357596       -1.0685046258
H                -1.1943354144        3.6634838077        0.5039766483
H                -2.8068167752        3.0103455132       -0.0880777430



