%nprocshared=20
%mem=5GB
#p m062x/cc-pVTZ opt=(calcfc,maxcycles=900,Tight) freq IOP(7/33=1,2/16=3) scf=(maxcycle=900) 

Gaussian input prepared by ASE

0 1
C                 1.4735897258       -1.2249178162        0.1694075274
C                 0.3058299126       -0.6204453741        0.8714856108
C                -0.1711862752        0.7903532647        0.6325614234
C                 2.2286372390       -0.5152373363       -0.9035709856
C                -1.2162731485        0.9748998003       -0.4423519421
C                 1.4793958976        0.3410577140       -1.8389764694
C                -2.1825065931       -0.1734738003       -0.5748542967
H                 2.7750472631       -1.2975031910       -1.5024298655
H                 3.0275528627        0.1132093790       -0.4425463960
H                 1.1447714808       -2.1994690193       -0.2497642922
H                 2.2261298052       -1.4968567069        0.9377671754
H                 0.4953574175       -0.7092362621        1.9526334884
H                -0.5654161577       -1.2855489841        0.6930956648
H                 0.6591268813        1.4861665461        0.4238810946
H                -0.6244491475        1.1327947049        1.5856780944
H                -1.7960017749        1.9047226327       -0.2038890307
H                -0.7410347398        1.1693808333       -1.4188690965
H                 0.9807435839        1.1645960534       -1.2939905856
H                 2.1829320442        0.7964828979       -2.5973699837
H                 0.7032973015       -0.2182232613       -2.4032176056
H                -2.5577540794       -0.4750491251        0.4038283217
H                -1.7055615305       -1.0682148667       -1.0625236635
H                -3.0703594913        0.1163166352       -1.2070115831



