%nprocshared=20
%mem=5GB
#p m062x/cc-pVTZ opt=(calcfc,maxcycles=900,Tight) freq IOP(7/33=1,2/16=3) scf=(maxcycle=900) 

Gaussian input prepared by ASE

0 1
C                 1.3760248588       -1.1413897784        0.5054447140
C                 0.1482322668       -0.4221988873        0.9495768601
C                -0.6048256923       -1.1797328641        2.0144843651
C                 2.1421474348       -0.4872789235       -0.5946558305
C                 0.0466764813       -2.4991216884        2.3557478820
C                 3.3714924926       -1.1742763747       -1.0263182572
C                -0.6702606573       -3.2899565828        3.4190009935
H                 2.3979913798        0.5622044838       -0.2748680982
H                 1.4560366933       -0.3795040799       -1.4683787577
H                 1.0970536260       -2.1700547693        0.1930349066
H                 2.0153957666       -1.2783381779        1.4015997554
H                -0.5138621326       -0.2146623607        0.0944483164
H                 0.4320099325        0.5743308785        1.3491443291
H                -1.6442897422       -1.3632272300        1.6935983313
H                -0.6828527784       -0.5522351643        2.9262426503
H                 0.1194944579       -3.1141512385        1.4208914573
H                 1.0839141769       -2.3031355846        2.6766646624
H                 3.6022299772       -2.0892412710       -0.4488422042
H                 3.3057029215       -1.4834172004       -2.1115093060
H                 4.2591300101       -0.5129771567       -0.9353496812
H                -1.7483891360       -3.1399222064        3.3503956789
H                -0.3381814706       -2.9437618726        4.4367102921
H                -0.4391263528       -4.3878022023        3.3041270231



