%nprocshared=20
%mem=5GB
#p m062x/cc-pVTZ opt=(calcfc,maxcycles=900,Tight) freq IOP(7/33=1,2/16=3) scf=(maxcycle=900) 

Gaussian input prepared by ASE

0 1
C                 1.4791551662       -1.0784862016        0.6101374119
C                 0.1628026069       -0.4669304029        0.9495177217
C                -1.0642837800       -1.2984195408        0.6704714485
C                 2.2181363809       -0.4495730956       -0.5227355243
C                -0.8351687209       -2.6294617286       -0.0059424217
C                 2.7145296382        0.9174759619       -0.2895878706
C                -0.2346718062       -2.5261447749       -1.3838593033
H                 1.5617152632       -0.4931196725       -1.4372576683
H                 3.0841070550       -1.1106988905       -0.7651454970
H                 1.3396147456       -2.1498686499        0.3527571086
H                 2.1387415007       -1.0739166129        1.5020840843
H                 0.0595542158        0.4896433873        0.4138017673
H                 0.1613894974       -0.2133582810        2.0306997980
H                -1.7701857168       -0.7062929431        0.0636666299
H                -1.5959868871       -1.4985370705        1.6235661658
H                -0.1542703955       -3.2417642822        0.6413468439
H                -1.7932279883       -3.1752885313       -0.0440962122
H                 2.4341149637        1.3100243310        0.7059785653
H                 3.8431732031        0.9615774513       -0.3314769155
H                 2.3482207160        1.6318860278       -1.0570045313
H                 0.3518857084       -1.6116170105       -1.4796051658
H                -1.0211759273       -2.5137340599       -2.1882950195
H                 0.4594490235       -3.3912308487       -1.5880808954



