%nprocshared=20
%mem=5GB
#p m062x/cc-pVTZ opt=(calcfc,maxcycles=900,Tight) freq IOP(7/33=1,2/16=3) scf=(maxcycle=900) 

Gaussian input prepared by ASE

0 1
C                 1.4308879794       -1.1584623038        0.5346164762
C                 0.1638006566       -0.4385980255        0.8480629428
C                -0.1146274676        0.8382348710        0.0949643143
C                 2.3474309717       -0.5323311881       -0.4618446566
C                -0.3064632424        0.6655131472       -1.3933464669
C                 2.4124291478       -1.2521459957       -1.7452888899
C                -1.3970842011       -0.3153833738       -1.7373142118
H                 3.3798442320       -0.4755485566       -0.0145926776
H                 2.0344258346        0.5207486636       -0.6588363571
H                 1.1929615905       -2.1904509285        0.2000017546
H                 1.9894869496       -1.2957591368        1.4831736174
H                 0.1681797919       -0.1946363074        1.9219105732
H                -0.6981255233       -1.1231315079        0.7005750725
H                 0.7056439709        1.5535078208        0.2756931568
H                -1.0341669436        1.2944161879        0.5162605499
H                -0.5065982578        1.6683350624       -1.8535795842
H                 0.6383907719        0.3149707995       -1.8423800114
H                 1.9329908514       -2.2449137697       -1.6534727321
H                 1.8648902112       -0.6668668882       -2.5422740901
H                 3.4584902373       -1.4011242239       -2.0874204209
H                -2.2829325737       -0.2130195666       -1.1093235019
H                -1.0037264524       -1.3615514550       -1.6082343630
H                -1.7493351633       -0.2133399538       -2.8037993265



