%nprocshared=20
%mem=5GB
#p m062x/cc-pVTZ opt=(calcfc,maxcycles=900,Tight) freq IOP(7/33=1,2/16=3) scf=(maxcycle=900) 

Gaussian input prepared by ASE

0 1
C                 1.3399902101       -1.1820807067        0.4082263464
C                 0.1552206730       -0.4364510465        0.9203992703
C                -0.5628974656       -1.1424307599        2.0432888433
C                 2.1323980163       -0.4810679803       -0.6432949544
C                 0.2446319835       -1.3517056392        3.3025755277
C                 1.4529358776       -0.2834767732       -1.9351448439
C                 1.6435345673       -0.7930240117        3.2730413103
H                 3.0706306252       -1.0851770524       -0.7979155888
H                 2.4602980637        0.4986198702       -0.2208634280
H                 1.0183311831       -2.1719618493        0.0206088883
H                 2.0148624030       -1.3802918966        1.2660746590
H                -0.5656460200       -0.2572607253        0.1074249351
H                 0.4715313088        0.5699793623        1.2672434917
H                -0.9463607355       -2.1140201529        1.6881923605
H                -1.4757009695       -0.5605364362        2.2868735708
H                -0.3182817807       -0.8950848329        4.1582307581
H                 0.2794421224       -2.4319176878        3.5243645138
H                 0.4224835924       -0.6860240506       -1.9334367932
H                 1.3854588522        0.8093750480       -2.2156046055
H                 1.9903854213       -0.7724039404       -2.7751391969
H                 1.7219368973        0.0605843633        2.5986646820
H                 2.3810257137       -1.5583844605        2.9040023254
H                 1.9843847091       -0.4377630110        4.2876815925



