%nprocshared=20
%mem=5GB
#p m062x/cc-pVTZ opt=(calcfc,maxcycles=900,Tight) freq IOP(7/33=1,2/16=3) scf=(maxcycle=900) 

Gaussian input prepared by ASE

0 1
C                 1.4734800219       -1.0591379242        0.6057457395
C                 0.1586736885       -0.4446335288        0.9457930947
C                -0.8212000123       -0.3264076646       -0.1947559772
C                 2.2017720173       -0.4617679349       -0.5508725577
C                -1.2610604750       -1.6268909144       -0.8248106021
C                 2.7027594206        0.9068945356       -0.3378892635
C                -0.6723234377       -2.8665489757       -0.2030691270
H                 1.5209392780       -0.4885036567       -1.4480279078
H                 3.0536965667       -1.1381948222       -0.8007252110
H                 1.3019721626       -2.1318857236        0.3747182240
H                 2.1205469554       -1.0107223785        1.5055258229
H                 0.3220706859        0.5599715925        1.3662157409
H                -0.3070814415       -1.0399067719        1.7594130459
H                -0.3998665391        0.3314766642       -0.9737231487
H                -1.7138386895        0.2073370956        0.1918413364
H                -2.3799384710       -1.6825592812       -0.7744776820
H                -1.0255329890       -1.6009530588       -1.9023606942
H                 2.4106282660        1.3191716140        0.6462683149
H                 3.8304347991        0.9547323336       -0.3978535516
H                 2.3326862318        1.6087909660       -1.1149861275
H                -0.4394448902       -2.7221190265        0.8526228697
H                 0.2854488594       -3.1587781534       -0.7160349296
H                -1.3735120407       -3.7473133457       -0.2699478800



