%nprocshared=20
%mem=5GB
#p m062x/cc-pVTZ opt=(calcfc,maxcycles=900,Tight) freq IOP(7/33=1,2/16=3) scf=(maxcycle=900) 

Gaussian input prepared by ASE

0 1
C                 1.3766865408       -1.1841812165        0.3929409569
C                 0.2200865027       -0.3942619135        0.9031050447
C                 0.1996622763       -0.0727807868        2.3766092850
C                 2.0810321010       -0.5614315207       -0.7651204268
C                 1.3888399037       -0.5006887226        3.2039267022
C                 3.4837758009       -0.1980801801       -0.5007851556
C                 2.7090769153        0.1312539207        2.8467872352
H                 1.5148740455        0.3557523470       -1.0928009864
H                 2.0344517488       -1.2501429124       -1.6421962557
H                 1.0248825881       -2.1978402118        0.1060508731
H                 2.1092411803       -1.3478755549        1.2097712597
H                -0.7111042022       -0.9267930043        0.6541477426
H                 0.1562557840        0.5613145803        0.3409176169
H                -0.6942126278       -0.5388441297        2.8248236937
H                 0.0555473498        1.0201484813        2.5026301678
H                 1.1577933978       -0.2640236027        4.2754338058
H                 1.4869043976       -1.5984934101        3.1542437742
H                 3.8034299164       -0.5292241964        0.5052188339
H                 4.1841050114       -0.6646726277       -1.2553488804
H                 3.6403942456        0.9004444682       -0.5477591901
H                 2.5944337296        1.1654212916        2.5197814112
H                 3.2121142723       -0.4362343926        2.0156614856
H                 3.4009165313        0.1180821210        3.7373311978



