%nprocshared=20
%mem=5GB
#p m062x/cc-pVTZ opt=(calcfc,maxcycles=900,Tight) freq IOP(7/33=1,2/16=3) scf=(maxcycle=900) 

Gaussian input prepared by ASE

0 1
C                 1.3799616098       -1.1255612842        0.4950405910
C                 0.1162148980       -0.4491209973        0.9041082344
C                -0.9107826718       -0.2569246343       -0.1836962331
C                 2.2060028242       -0.4746243352       -0.5627698932
C                -2.1482398674        0.4430528579        0.3266310535
C                 1.7471614262        0.8155477961       -1.1054554955
C                -3.4019707516       -0.3616817250        0.1019379491
H                 2.3142392309       -1.1954625432       -1.4217302521
H                 3.2435320994       -0.3564611485       -0.1686562238
H                 1.1356874829       -2.1589325079        0.1693865340
H                 1.9937143542       -1.2490979020        1.4108408710
H                 0.3457020233        0.5250898827        1.3633838059
H                -0.3579452756       -1.0649567319        1.6973131120
H                -1.1827515435       -1.2424516983       -0.5982958942
H                -0.4746165126        0.3279554566       -1.0196502515
H                -2.0270061766        0.6507744291        1.4219275800
H                -2.2427366705        1.4333562240       -0.1504745608
H                 0.8523747539        1.2035776674       -0.5832785427
H                 2.5576076447        1.6007854166       -1.0413092849
H                 1.4728635671        0.7315529824       -2.1783943827
H                -3.2020060600       -1.4300995300        0.1918019361
H                -3.8239746612       -0.1668935724       -0.9226741023
H                -4.2055802066       -0.1035569470        0.8499135789



