%nprocshared=20
%mem=5GB
#p m062x/cc-pVTZ opt=(calcfc,maxcycles=900,Tight) freq IOP(7/33=1,2/16=3) scf=(maxcycle=900) 

Gaussian input prepared by ASE

0 1
C                 1.4426929341       -1.1011634563        0.4983547893
C                 0.1444752680       -0.4560498450        0.8453747741
C                -0.8854691116       -0.3167931240       -0.2476961982
C                 2.3300106817       -0.4449208624       -0.5051584856
C                -0.5110756473       -0.8895348988       -1.5943584176
C                 2.7913149818        0.9252924806       -0.2235542291
C                -0.1491813206        0.1761544612       -2.5959893648
H                 1.8031625277       -0.4489353900       -1.5009248468
H                 3.2058299655       -1.1240258575       -0.6374918061
H                 1.2281761308       -2.1299149174        0.1388697793
H                 2.0165556636       -1.2187888661        1.4404215124
H                 0.3437683869        0.5306131103        1.2919883605
H                -0.2994566991       -1.0520501387        1.6705799355
H                -1.1190276753        0.7557311486       -0.3584464663
H                -1.8381034987       -0.7758422011        0.0883193214
H                 0.3545715810       -1.5907006513       -1.4657434739
H                -1.3480711459       -1.4882517877       -1.9921483023
H                 2.4862961994        1.3033690341        0.7703777616
H                 3.9169518307        1.0140571232       -0.2745292491
H                 2.3894486964        1.6284118055       -0.9835667313
H                 0.1199851232        1.1044371294       -2.0905996801
H                -1.0192076453        0.4030035753       -3.2723422709
H                 0.7150956276       -0.1069186225       -3.2629069655



