%nprocshared=20
%mem=5GB
#p m062x/cc-pVTZ opt=(calcfc,maxcycles=900,Tight) freq IOP(7/33=1,2/16=3) scf=(maxcycle=900) 

Gaussian input prepared by ASE

0 1
C                 1.9296534447       -1.0258716147        0.5977525454
C                 0.7218614972       -0.2684965455        1.0331663328
C                -0.3973095598        0.0492354562        0.0732264752
C                 2.9706460863       -0.2072913246       -0.0887506583
C                -0.1350387821        0.3089684817       -1.3915108851
C                 3.1393255847        1.1344576371        0.4950679526
C                 0.8225015680        1.4059488554       -1.7783912381
H                 2.7278415823       -0.0975909730       -1.1833499209
H                 3.9462381944       -0.7489107765       -0.0637801174
H                 1.6655755512       -1.9073597769       -0.0241943865
H                 2.3888004177       -1.4407466298        1.5184624123
H                 1.0784535456        0.6745427875        1.4761157175
H                 0.2713494149       -0.8300829063        1.8786928688
H                -0.9325219556        0.9275832925        0.4721955340
H                -1.1325724135       -0.7806770348        0.1153993709
H                 0.2031726927       -0.6417250308       -1.8807093966
H                -1.1162237364        0.5301622195       -1.8449528173
H                 2.7982668553        1.1655665479        1.5470139203
H                 4.2214937344        1.4599781850        0.4730588927
H                 2.5449621377        1.8921762434       -0.0581832621
H                 1.7266649490        0.9782676136       -2.2133111802
H                 1.1466833128        2.0574316625       -0.9202910526
H                 0.3604413555        2.0591637532       -2.5731835111



