%nprocshared=20
%mem=5GB
#p m062x/cc-pVTZ opt=(calcfc,maxcycles=900,Tight) freq IOP(7/33=1,2/16=3) scf=(maxcycle=900) 

Gaussian input prepared by ASE

0 1
C                 1.5113771245       -1.0690990154        0.5985833134
C                 0.1810621785       -0.4910737652        0.9422583116
C                -1.0536015284       -1.3109974481        0.6624142569
C                 2.1950019737       -0.4135850682       -0.5537988067
C                -0.9064496691       -2.6531551057       -0.0148315571
C                 3.4005181247       -1.1289319963       -1.0061225867
C                -1.2606440017       -3.8174573790        0.8733533679
H                 2.4515467824        0.6554641754       -0.3079244163
H                 1.4620658934       -0.3393627016       -1.3922800901
H                 1.4065870331       -2.1482840784        0.3578445823
H                 2.1696272591       -1.0122023821        1.4897137267
H                 0.0683223555        0.4774268004        0.4304169134
H                 0.1681205123       -0.2422853768        2.0244747184
H                -1.7389685700       -0.6882457947        0.0627677474
H                -1.5797810687       -1.4707814854        1.6261304562
H                -1.5587408600       -2.6670791832       -0.9268856468
H                 0.1271967508       -2.8072993313       -0.3684907239
H                 3.5761693705       -2.0463906046       -0.4134207377
H                 3.2931695009       -1.4411436846       -2.0871110532
H                 4.3173601581       -0.5062289634       -0.9344712183
H                -2.1756169759       -3.6532681297        1.4438306828
H                -0.4230183893       -3.9931677576        1.6036743770
H                -1.4044804909       -4.7622070576        0.2744850943



