%nprocshared=20
%mem=5GB
#p m062x/cc-pVTZ opt=(calcfc,maxcycles=900,Tight) freq IOP(7/33=1,2/16=3) scf=(maxcycle=900) 

Gaussian input prepared by ASE

0 1
C                 1.3054785919       -1.1817534828        0.4166899903
C                 0.1272328439       -0.4124085350        0.9084306318
C                 0.4409503370        0.9127234109        1.5569587119
C                 2.1402154898       -0.5253158057       -0.6308451678
C                 1.2751729916        0.8389205551        2.8140698610
C                 1.6266432786        0.7269396270       -1.2119537078
C                 2.6370593948        0.2270282922        2.6121313722
H                 2.3202642546       -1.2609612691       -1.4648379342
H                 3.1494515793       -0.3316169830       -0.1953243282
H                 0.9449807123       -2.1660210068        0.0494908344
H                 1.9480999989       -1.4022993798        1.2936398832
H                -0.4400492835       -1.0395406433        1.6138252282
H                -0.5594350107       -0.2182028566        0.0575329224
H                -0.5132166942        1.4141947849        1.7919380246
H                 0.9531024805        1.5663121632        0.8209786274
H                 1.3808837529        1.8838811898        3.2070111377
H                 0.7161527425        0.2840579308        3.5866525422
H                 0.6535348009        1.0329656939       -0.7838333077
H                 2.3440404070        1.5790192581       -1.0200224901
H                 1.5037126364        0.6680705766       -2.3141854403
H                 3.0148768375        0.3899788019        1.6020426972
H                 2.6090315349       -0.8845738685        2.7836383852
H                 3.3890383076        0.6669210795        3.3283060369



