%nprocshared=20
%mem=5GB
#p m062x/cc-pVTZ opt=(calcfc,maxcycles=900,Tight) freq IOP(7/33=1,2/16=3) scf=(maxcycle=900) 

Gaussian input prepared by ASE

0 1
C                 1.0593022859       -1.4186117541        0.3410916486
C                 0.1699959422       -0.3443991480        0.8675563236
C                 0.1086065558        0.9967719917        0.1801893711
C                 2.1072271874       -1.0531714082       -0.6555691635
C                 1.1399749770        2.0250339893        0.5810125043
C                 1.5440941050       -0.7776307088       -1.9884403780
C                 2.5084586597        1.8461210484       -0.0232791801
H                 2.8437072911       -1.9023762784       -0.7302945627
H                 2.7008290418       -0.1825573405       -0.2875703817
H                 0.4242694650       -2.1911180333       -0.1421721149
H                 1.5317576855       -1.9286699164        1.2055397075
H                 0.4084789050       -0.1718869185        1.9287116549
H                -0.8640445059       -0.7493444031        0.8616240342
H                -0.8804882882        1.4226428089        0.4198745327
H                 0.1225076555        0.8728823328       -0.9223544474
H                 0.7509816334        3.0308056668        0.2733961013
H                 1.2404712756        2.0535407287        1.6793512634
H                 0.4765364074       -1.0658524981       -2.0220246397
H                 1.6147072510        0.3185456897       -2.2547991906
H                 2.0632445490       -1.3520375375       -2.7847015862
H                 2.4558336935        1.2952973415       -0.9631737895
H                 3.1688584372        1.2726715229        0.6844547781
H                 2.9930235648        2.8430285223       -0.2312610091



