%nprocshared=20
%mem=5GB
#p m062x/cc-pVTZ opt=(calcfc,maxcycles=900,Tight) freq IOP(7/33=1,2/16=3) scf=(maxcycle=900) 

Gaussian input prepared by ASE

0 1
C                 1.4622817420       -0.8784874194        0.5476129093
C                 0.1807725183       -0.1659666082        0.8159629664
C                -0.9494180423       -0.3846470648       -0.1586293404
C                 2.4023851758       -0.3338845079       -0.4744630284
C                -0.7973697922        0.1920248958       -1.5464454376
C                 2.1699783198        1.0518754870       -0.9163267062
C                -0.9437336777        1.6911482897       -1.5800985645
H                 2.3928227591       -1.0004071152       -1.3826435800
H                 3.4406932327       -0.4229159159       -0.0747820212
H                 1.2246006590       -1.9287209698        0.2754113435
H                 1.9973029561       -0.9383762310        1.5175662643
H                 0.3547471152        0.9133457864        0.9482612072
H                -0.1709789058       -0.5212692145        1.8075710007
H                -1.8554054273        0.0646675599        0.2823091657
H                -1.1701165401       -1.4683040268       -0.2487654695
H                 0.1765833230       -0.1179979660       -2.0077712386
H                -1.5866729043       -0.2479263012       -2.1794570578
H                 1.1249662337        1.3477490909       -0.7058802989
H                 2.8355188171        1.7910771229       -0.3795094952
H                 2.3530789568        1.1635357351       -2.0060507289
H                -1.0957973925        2.1267249974       -0.5918032754
H                -1.8406217128        1.9683204446       -2.2002816254
H                -0.0401949536        2.2067103063       -2.0156415371



