%nprocshared=20
%mem=5GB
#p m062x/cc-pVTZ opt=(calcfc,maxcycles=900,Tight) freq IOP(7/33=1,2/16=3) scf=(maxcycle=900) 

Gaussian input prepared by ASE

0 1
C                 1.6279929921       -0.7847735082        0.8032443171
C                 0.1562311649       -0.6509942132        0.9981385814
C                -0.2558193620       -0.0690533957        2.3272515406
C                 2.1511054116       -0.0699362474       -0.3969169667
C                -0.1295312222        1.4321453949        2.4375068651
C                 3.5832335005       -0.2924753203       -0.6597338576
C                 1.2411259523        1.9832132197        2.1416200073
H                 1.9668502094        1.0335239490       -0.2643977024
H                 1.5605164238       -0.3679086487       -1.2959009574
H                 1.8913179337       -1.8611198821        0.7276469729
H                 2.1678519033       -0.4163956717        1.6996225886
H                -0.3120839336       -1.6430119803        0.9018735913
H                -0.2862536312       -0.0373070979        0.1852112601
H                 0.3264578495       -0.5453698663        3.1342208143
H                -1.3164135161       -0.3355512082        2.5150378986
H                -0.8672553087        1.9129860968        1.7431901279
H                -0.4262922558        1.7344475990        3.4562347170
H                 4.2085008131        0.0086000884        0.2018191158
H                 3.7970976649       -1.3821257894       -0.8705890317
H                 3.9193312973        0.2901787880       -1.5435012258
H                 1.5368520055        1.7819481442        1.1112722550
H                 2.0156905437        1.5346540078        2.8233119519
H                 1.2534029130        3.0999809252        2.2983467378



