%nprocshared=20
%mem=5GB
#p m062x/cc-pVTZ opt=(calcfc,maxcycles=900,Tight) freq IOP(7/33=1,2/16=3) scf=(maxcycle=900) 

Gaussian input prepared by ASE

0 1
C                 1.4794558603       -1.3146223657        0.7574340707
C                 0.2010447478       -0.5644019462        0.9149075591
C                 0.3805629607        0.8487533512        1.4106366451
C                 2.4227882773       -0.7298285460       -0.2391431513
C                -0.9182010071        1.6121359201        1.5209178731
C                 1.9117383429       -0.6924536658       -1.6200914859
C                -0.7482401764        3.0163050482        2.0399055855
H                 3.3824498530       -1.3195057386       -0.2175512821
H                 2.6973584765        0.3040674062        0.0793305301
H                 1.2470248703       -2.3621449708        0.4706436826
H                 1.9917333490       -1.3760431401        1.7394947323
H                -0.4515094305       -1.1116591385        1.6130249131
H                -0.3355747472       -0.5433757732       -0.0571278917
H                 1.0665622433        1.3872423596        0.7349458046
H                 0.8776636932        0.8269669084        2.4023830707
H                -1.4101910334        1.6536569896        0.5140702407
H                -1.6137901494        1.0645765647        2.1793969294
H                 1.6973434398       -1.7081914047       -2.0024405560
H                 0.9542191441       -0.0955663661       -1.6865630250
H                 2.6497059875       -0.2221339242       -2.3039740754
H                -0.0983609127        3.6047915515        1.3911231889
H                -0.3007913006        3.0140808260        3.0722059955
H                -1.7464181467        3.5376326861        2.1010802002



