%nprocshared=20
%mem=5GB
#p m062x/cc-pVTZ opt=(calcfc,maxcycles=900,Tight) freq IOP(7/33=1,2/16=3) scf=(maxcycle=900) 

Gaussian input prepared by ASE

0 1
C                 1.0974384452       -1.2760391548        0.1303601973
C                 0.3398339736       -0.5685685601        1.2015671672
C                -0.7463203631       -1.4008544796        1.8360361697
C                 2.1507271220       -0.4442582669       -0.5206002762
C                -0.2482879102       -2.6487809529        2.5262143590
C                 1.6518604797        0.7806216420       -1.1689740126
C                 0.6916703668       -2.3826884406        3.6732100357
H                 2.6845727472       -1.0742560538       -1.2869209512
H                 2.9256976347       -0.1717782369        0.2349991266
H                 0.3881691948       -1.6389693914       -0.6434584338
H                 1.5705896874       -2.1852203651        0.5548143276
H                -0.1128785617        0.3453503276        0.7862493890
H                 1.0440001009       -0.2312802400        1.9912773383
H                -1.4804852192       -1.6920856260        1.0657700316
H                -1.2962483912       -0.7728702648        2.5670353146
H                -1.1309866825       -3.2265816420        2.9063585173
H                 0.2547914178       -3.2986308702        1.7900985768
H                 0.9518895887        0.5466877470       -1.9931067838
H                 1.1012255057        1.4374207912       -0.4321212913
H                 2.4878485394        1.3766247597       -1.5925263091
H                 0.2060918620       -1.7997688756        4.4567892062
H                 1.5995300759       -1.8153052740        3.3271946158
H                 1.0447775965       -3.3531043663        4.1265226383



