%nprocshared=20
%mem=5GB
#p m062x/cc-pVTZ opt=(calcfc,maxcycles=900,Tight) freq IOP(7/33=1,2/16=3) scf=(maxcycle=900) 

Gaussian input prepared by ASE

0 1
C                 1.2729320960       -1.3611584183        0.4291432581
C                 0.0378559224       -0.9294990461        1.1434405225
C                 0.2842088837       -0.0436019634        2.3390485633
C                 1.9735222948       -0.2892601895       -0.3358623500
C                -0.1659995556        1.3898280329        2.1831846900
C                 1.2295383979        0.2105111713       -1.5047523226
C                 0.4318716688        2.1036340480        0.9987198988
H                 2.9727596658       -0.6841272018       -0.6745959606
H                 2.1954696813        0.5693812198        0.3418023221
H                 1.0117135903       -2.1881894984       -0.2646585758
H                 1.9813054484       -1.7977502928        1.1627907271
H                -0.4984132549       -1.8316713666        1.4768857256
H                -0.6449517760       -0.4239149418        0.4283084644
H                 1.3568077212       -0.0520451876        2.5970872923
H                -0.2391866511       -0.4693403476        3.2199280684
H                -1.2839185816        1.4212640074        2.1007882650
H                 0.0892508255        1.9388366638        3.1055170250
H                 0.3077977000        0.7358091769       -1.1911678344
H                 1.8543675126        0.9458032216       -2.0933694377
H                 0.9401693864       -0.6111963122       -2.1936316203
H                 0.0113002289        1.7327767781        0.0632186592
H                 1.5441631015        1.9406637670        0.9528065433
H                 0.2384138780        3.2130118379        1.0598680997



