%nprocshared=20
%mem=5GB
#p m062x/cc-pVTZ opt=(calcfc,maxcycles=900,Tight) freq IOP(7/33=1,2/16=3) scf=(maxcycle=900) 

Gaussian input prepared by ASE

0 1
C                 1.3480712981       -1.3503573757        0.6466827937
C                 0.0262519406       -0.6630620349        0.5978744891
C                 0.0369045430        0.7391088987        1.1535589365
C                 2.4161485334       -0.6868899564       -0.1558432327
C                 0.2814125222        0.8080405069        2.6425743902
C                 2.1414000310       -0.6119657186       -1.6010030298
C                -0.7766237464        0.1215583902        3.4667269415
H                 3.3862826274       -1.2359805651        0.0068684232
H                 2.5836872228        0.3432879494        0.2396556801
H                 1.2203384053       -2.3968018819        0.2970905976
H                 1.6872604530       -1.4213530340        1.7005111544
H                -0.7129965746       -1.2636538551        1.1505826655
H                -0.3277647614       -0.6246529156       -0.4540059291
H                -0.9257748610        1.2249050866        0.9203766707
H                 0.8198529245        1.3317164913        0.6368841518
H                 1.2783589822        0.3502440459        2.8750405085
H                 0.3482089219        1.8661708123        2.9477934391
H                 2.0528119598       -1.6190343241       -2.0502736802
H                 1.1752018547       -0.0623521762       -1.8057515784
H                 2.9539085210       -0.0732157293       -2.1330469215
H                -0.5183607490        0.1428515635        4.5261724780
H                -0.8947569606       -0.9525696093        3.1534328872
H                -1.7766112081        0.6272450172        3.3394861781



