%nprocshared=20
%mem=5GB
#p m062x/cc-pVTZ opt=(calcfc,maxcycles=900,Tight) freq IOP(7/33=1,2/16=3) scf=(maxcycle=900) 

Gaussian input prepared by ASE

0 1
C                 1.3573128778       -0.9987560282        0.3131301277
C                 0.9682662859        0.1566909618        1.1707714005
C                -0.0658222679        1.0801019617        0.5766712421
C                 2.2123981713       -0.6796783688       -0.8667192729
C                -0.4261570628        2.2379866495        1.4773180238
C                 1.5319978723       -0.0153519317       -1.9915806146
C                 0.7379536905        3.1299544376        1.8225215710
H                 2.6633007235       -1.6415868238       -1.2416255979
H                 3.0777565680       -0.0556740121       -0.5388038446
H                 0.4458758529       -1.5373267091       -0.0227279839
H                 1.9112233416       -1.7204919177        0.9478933781
H                 1.8634048285        0.7420354272        1.4330385857
H                 0.5742689290       -0.2383393373        2.1309654670
H                -0.9818195511        0.5081867250        0.3508715981
H                 0.3009378618        1.4719607517       -0.3944510241
H                -1.2190095355        2.8519926401        0.9754196872
H                -0.8764628839        1.8532438297        2.4081551739
H                 1.1263107800        0.9713826989       -1.6989171696
H                 2.2503522102        0.1495522970       -2.8484992634
H                 0.6882675950       -0.6270562416       -2.3755459207
H                 1.1449453224        3.6123166303        0.9329921748
H                 1.5639283604        2.5405199689        2.3085179000
H                 0.4185883161        3.9361146381        2.5436287675



