%nprocshared=20
%mem=5GB
#p m062x/cc-pVTZ opt=(calcfc,maxcycles=900,Tight) freq IOP(7/33=1,2/16=3) scf=(maxcycle=900) 

Gaussian input prepared by ASE

0 1
C                 1.4710147712       -0.7882558230        0.4057295396
C                 0.4069663696       -0.0331289476        1.1265262870
C                 0.4863432921       -0.0961291613        2.6314223922
C                 1.3870960772       -0.6650395248       -1.0784542148
C                 0.1050260007       -1.4214453720        3.2477314097
C                 2.4372848307       -1.4006642974       -1.8034004169
C                 1.1430296551       -2.5062633195        3.1226542166
H                 1.4355730096        0.4236064826       -1.3641736532
H                 0.3863951432       -1.0192482315       -1.4232569885
H                 1.4198109004       -1.8610362841        0.6887432244
H                 2.4665034732       -0.4370225607        0.7467300082
H                -0.5831850932       -0.3892387348        0.8017630959
H                 0.4563997745        1.0345615246        0.8251147839
H                -0.1898757092        0.6744535109        3.0389193216
H                 1.5068336558        0.1876250490        2.9619185733
H                -0.1009539665       -1.2555834228        4.3374939558
H                -0.8436708500       -1.7736131454        2.8081721818
H                 2.3977734552       -2.4847790336       -1.5865750725
H                 2.3183292689       -1.2722710809       -2.9200474902
H                 3.4515289924       -1.0379385593       -1.5327879279
H                 2.0850651629       -2.2091355887        3.5851066291
H                 1.3453075983       -2.7509179107        2.0432620985
H                 0.7870041513       -3.4490714328        3.6288585252



