%nprocshared=20
%mem=5GB
#p m062x/cc-pVTZ opt=(calcfc,maxcycles=900,Tight) freq IOP(7/33=1,2/16=3) scf=(maxcycle=900) 

Gaussian input prepared by ASE

0 1
C                 1.0316813964       -0.9453160585        0.5218034227
C                -0.2463103272       -0.1814990762        0.4491100803
C                -0.9412512296       -0.2433965873       -0.8881288102
C                 2.0778672836       -0.5086783418       -0.4476647891
C                -1.2981571744       -1.6385818237       -1.3439566754
C                 2.5018846228        0.8948838132       -0.3069175223
C                -2.2213741073       -2.3761960433       -0.4093328859
H                 1.7024926598       -0.6769869992       -1.4964268344
H                 2.9673644235       -1.1737858956       -0.3372931445
H                 0.8234612206       -2.0239735669        0.3583444438
H                 1.4334735425       -0.8677948660        1.5529180701
H                -0.0567763638        0.8748081602        0.6960455558
H                -0.9351071706       -0.5617025210        1.2328573284
H                -0.2989231100        0.2235409015       -1.6539665922
H                -1.8629393480        0.3723564620       -0.8382895202
H                -1.7810336833       -1.5740699025       -2.3540006493
H                -0.3755037097       -2.2281767730       -1.4794134944
H                 2.9372538941        1.0897512083        0.6912605360
H                 3.2867700159        1.1550693882       -1.0774980283
H                 1.6499945764        1.5935932350       -0.4468489078
H                -3.1668569873       -1.8467118455       -0.2856937822
H                -1.7534393756       -2.4989826027        0.6064525874
H                -2.4465738329       -3.4060176420       -0.8101279189



