%nprocshared=20
%mem=5GB
#p m062x/cc-pVTZ opt=(calcfc,maxcycles=900,Tight) freq IOP(7/33=1,2/16=3) scf=(maxcycle=900) 

Gaussian input prepared by ASE

0 1
C                 1.4563629391       -1.4464530427        0.6667854895
C                 0.4728471593       -0.3321684702        0.5526357960
C                -0.6066132362       -0.5106705739       -0.4855762554
C                 2.8423498320       -1.0974735228        0.2398432834
C                -0.1706663599       -0.3824026439       -1.9261318424
C                 3.3488117364        0.1668438442        0.8007221963
C                 0.7131239565       -1.4931834620       -2.4311135460
H                 2.8742101649       -1.0369323223       -0.8846367841
H                 3.5277071602       -1.9350530449        0.5127919907
H                 1.1177251287       -2.3265850521        0.0800414403
H                 1.4890182678       -1.7922335853        1.7203571889
H                 1.0086644262        0.6120292853        0.3680397916
H                -0.0313497949       -0.1946937467        1.5325039666
H                -1.3850808771        0.2488317195       -0.3004602420
H                -1.0982262121       -1.4945488356       -0.3391351137
H                -1.0922266655       -0.3454750082       -2.5640058839
H                 0.3410007585        0.5837895716       -2.0742180761
H                 3.5238571701        0.0898438716        1.8903594022
H                 4.3245547262        0.4681442842        0.3162847981
H                 2.6144491837        0.9828420871        0.6323452127
H                 0.2765725747       -2.4733409900       -2.2354297924
H                 1.7277983575       -1.4554882467       -1.9464750099
H                 0.8644513404       -1.3939382905       -3.5442777382



