%nprocshared=20
%mem=5GB
#p m062x/cc-pVTZ opt=(calcfc,maxcycles=900,Tight) freq IOP(7/33=1,2/16=3) scf=(maxcycle=900) 

Gaussian input prepared by ASE

0 1
C                 1.6829035156       -0.7831513196        0.7939266004
C                 0.5346786052        0.1070460440        1.1272309040
C                 0.0079270547       -0.0847074914        2.5274970915
C                 2.2375148318       -0.5911208850       -0.5774072832
C                -0.4399560570       -1.4974866538        2.8193163785
C                 2.7754589773        0.7545831043       -0.8406259938
C                -0.8354139306       -1.7235880791        4.2554281728
H                 1.4403943303       -0.8250629374       -1.3383315647
H                 3.0419330230       -1.3464443144       -0.7451958722
H                 1.3644762865       -1.8410620970        0.9079677632
H                 2.4916437016       -0.6326808384        1.5381992828
H                -0.2815573275       -0.0572804171        0.4065083870
H                 0.8403545805        1.1678507597        1.0067690706
H                -0.8354202935        0.6074833790        2.6910837330
H                 0.7933471274        0.2076480926        3.2546753928
H                -1.3082823972       -1.7547784703        2.1580065963
H                 0.3687658772       -2.1982496393        2.5506897951
H                 1.9923070169        1.5302100064       -0.7459948375
H                 3.6011715687        1.0158785303       -0.1143620289
H                 3.1989279667        0.8206175739       -1.8652262884
H                -1.1522472862       -2.7555109136        4.4114086476
H                -1.6836922303       -1.0474343470        4.5539237956
H                 0.0281932082       -1.5145429056        4.9499545763



