%nprocshared=20
%mem=5GB
#p m062x/cc-pVTZ opt=(calcfc,maxcycles=900,Tight) freq IOP(7/33=1,2/16=3) scf=(maxcycle=900) 

Gaussian input prepared by ASE

0 1
C                 0.7439108238       -1.5969478405        0.2687326208
C                 0.0577377731       -0.4371300990        0.9058769537
C                 0.2556077469       -0.3092982719        2.3956717408
C                 1.9927546415       -1.2293282344       -0.4594644433
C                 1.6888251019       -0.3148531790        2.8727041259
C                 1.7874593094       -0.2148289876       -1.5074302466
C                 2.5620539036        0.7465947830        2.2556745045
H                 2.4471701174       -2.1568716518       -0.9092483070
H                 2.7420816996       -0.8420141369        0.2714609085
H                 0.0479499422       -2.0872194641       -0.4446036859
H                 0.9832553532       -2.3699063976        1.0276088593
H                -1.0255446013       -0.5032133733        0.7192823985
H                 0.3900133991        0.4973796115        0.4063371561
H                -0.2767077380       -1.1350339351        2.8975924308
H                -0.2373369642        0.6243823104        2.7368327614
H                 1.6883583434       -0.1845374270        3.9864985086
H                 2.1354083851       -1.3049946285        2.6792010223
H                 1.1763928045       -0.6064408941       -2.3423655623
H                 1.2474531185        0.6801428583       -1.0773667178
H                 2.7538731818        0.1366878627       -1.9269209273
H                 2.1013585819        1.7333103704        2.3167497875
H                 2.7591552409        0.5107584870        1.1733659144
H                 3.5582718443        0.7903974767        2.7824716558



