%nprocshared=20
%mem=5GB
#p m062x/cc-pVTZ opt=(calcfc,maxcycles=900,Tight) freq IOP(7/33=1,2/16=3) scf=(maxcycle=900) 

Gaussian input prepared by ASE

0 1
C                 1.2519042416       -1.3998088325        0.4025874351
C                 0.2762191690       -0.4305591823        0.9775285665
C                -0.7355684605        0.1379182756        0.0141484844
C                 2.3520610147       -0.8002351273       -0.4068521652
C                -0.1587397743        1.0034778710       -1.0811952944
C                 2.3455150865       -1.1722257684       -1.8320424450
C                -1.2102104404        1.6796760086       -1.9220825562
H                 3.3425875013       -1.1044597845        0.0352342261
H                 2.3294015690        0.3125040277       -0.3228685809
H                 0.7036172261       -2.1561560660       -0.1981593594
H                 1.6977008152       -1.9676626013        1.2448768107
H                 0.8180859648        0.3955997273        1.4638690458
H                -0.2854563210       -0.9412284960        1.7880796111
H                -1.4652036051        0.7294677926        0.5927893616
H                -1.3101801733       -0.6927334301       -0.4451813353
H                 0.5037530290        1.7874625894       -0.6295410164
H                 0.4856580354        0.3904420936       -1.7340343009
H                 2.3781096588       -2.2695692498       -1.9686221567
H                 1.4138248937       -0.7907917974       -2.3458492574
H                 3.2198864525       -0.7363010128       -2.3601869533
H                -1.8467923866        2.3276518143       -1.3183700409
H                -1.8675002425        0.9225743970       -2.4325988104
H                -0.7285580490        2.3100926549       -2.7236247734



