%nprocshared=20
%mem=5GB
#p m062x/cc-pVTZ opt=(calcfc,maxcycles=900,Tight) freq IOP(7/33=1,2/16=3) scf=(maxcycle=900) 

Gaussian input prepared by ASE

0 1
C                 1.6750141485       -0.5382118522        0.8571040402
C                 0.2008518606       -0.3241789006        0.9118671155
C                -0.6352422381       -1.2642189322        0.0798494431
C                 2.3496108386       -0.0835943039       -0.3932032062
C                -0.4989876177       -2.7210670613        0.4549906791
C                 2.0307906594       -0.8617621307       -1.6024987643
C                 0.4254601349       -3.5092925009       -0.4360889352
H                 3.4628496280       -0.1185808210       -0.2240551016
H                 2.1113459231        0.9919496874       -0.5726191276
H                 1.9010239779       -1.6114456939        1.0322187969
H                 2.1324542234        0.0072445638        1.7079093976
H                -0.0315742540        0.7091795009        0.6104807432
H                -0.1259846810       -0.4113918314        1.9696134366
H                -0.3884535974       -1.1236675683       -0.9862013159
H                -1.6967421072       -0.9616192682        0.1929698710
H                -0.1426531058       -2.8083812753        1.5146709534
H                -1.4937485592       -3.1977121548        0.4321807205
H                 2.2456264098       -1.9368864778       -1.4547409260
H                 0.9353874501       -0.7760319011       -1.8675988712
H                 2.6211005633       -0.5062464049       -2.4734953693
H                 0.5842560672       -4.5127258210       -0.0392470976
H                 1.4256931862       -3.0047614445       -0.5402130740
H                -0.0090667773       -3.6094707642       -1.4719628552



