%nprocshared=20
%mem=5GB
#p m062x/cc-pVTZ opt=(calcfc,maxcycles=900,Tight) freq IOP(7/33=1,2/16=3) scf=(maxcycle=900) 

Gaussian input prepared by ASE

0 1
C                 1.0495966929       -1.4061641437        0.4274823354
C                 0.1573659112       -0.2460327109        0.7102947129
C                 0.8290371688        0.9040463044        1.4182198432
C                 2.0531068768       -1.1886269353       -0.6544931236
C                 1.0160995134        2.1530032805        0.5894756781
C                 1.4731567798       -1.0166277997       -1.9974977410
C                 1.7767170841        1.9432039192       -0.6940238385
H                 2.7630666009       -2.0632340142       -0.6669585834
H                 2.6736020182       -0.2928631664       -0.4129394651
H                 0.4200417334       -2.2824738532        0.1641985608
H                 1.5831510616       -1.6891641013        1.3580061876
H                -0.6801659016       -0.6013338634        1.3307677451
H                -0.3026569996        0.1053642377       -0.2374154781
H                 1.8113331856        0.5838524195        1.8051228692
H                 0.2305759221        1.1791873073        2.3111287550
H                 0.0126583070        2.5922332174        0.3492608833
H                 1.5399969464        2.9044552463        1.2043834702
H                 0.8152320147       -1.8617825474       -2.2744952065
H                 0.8591572775       -0.0690460822       -2.0487757065
H                 2.2688024793       -0.9371451960       -2.7682913168
H                 1.1733560899        1.4008487320       -1.4229850046
H                 2.7089465119        1.3390479465       -0.5156886633
H                 2.0764412498        2.9314136424       -1.1473350643



