%nprocshared=20
%mem=5GB
#p m062x/cc-pVTZ opt=(calcfc,maxcycles=900,Tight) freq IOP(7/33=1,2/16=3) scf=(maxcycle=900) 

Gaussian input prepared by ASE

0 1
C                 0.9326429148       -1.1401100175        0.4431676660
C                 0.3681374249       -0.1608361381        1.4149288357
C                 1.2100390618        1.0575631583        1.7007378597
C                 1.4065145367       -0.5726634551       -0.8523924850
C                 2.5592500626        0.7754454164        2.3185905891
C                 0.5891371636        0.5259204384       -1.3951584372
C                 3.6863844882        0.6301485670        1.3294583015
H                 1.4704305340       -1.4051646163       -1.6086942117
H                 2.4541072506       -0.2095874895       -0.7240162062
H                 0.1539811102       -1.9060238142        0.2415781071
H                 1.7717832383       -1.6893657732        0.9173042626
H                 0.1589475261       -0.6841713300        2.3609970643
H                -0.6166815211        0.1888661697        1.0393021066
H                 0.6380161869        1.7060840551        2.3858174295
H                 1.3280478232        1.6338921373        0.7599596711
H                 2.8156638712        1.6109538762        3.0212269903
H                 2.5025448906       -0.1351174198        2.9390098140
H                -0.4711292069        0.2339749170       -1.5155003512
H                 0.6262641306        1.4174597415       -0.7013896073
H                 0.9690550384        0.8534728366       -2.3860490138
H                 3.4494458676       -0.0998037828        0.5544694777
H                 4.6273628717        0.3010041078        1.8510742396
H                 3.9017194466        1.6144601584        0.8228562421



