%nprocshared=20
%mem=5GB
#p m062x/cc-pVTZ opt=(calcfc,maxcycles=900,Tight) freq IOP(7/33=1,2/16=3) scf=(maxcycle=900) 

Gaussian input prepared by ASE

0 1
C                 1.6258452273       -1.0635052719        0.9167069323
C                 0.1679001973       -0.7540273891        0.8925557494
C                -0.3376001190       -0.0100233102        2.1033031924
C                 2.4059034368       -0.4346987016       -0.1883439746
C                 0.4671722377        1.2231723046        2.4398633941
C                 1.8016009728       -0.5909123083       -1.5225115282
C                 0.0496736777        1.8870221414        3.7263019728
H                 3.4477506802       -0.8632838250       -0.1905470397
H                 2.5309384467        0.6534168150        0.0264256436
H                 1.7711033743       -2.1639993971        0.8794342750
H                 2.0655419589       -0.7362361891        1.8811786072
H                -0.4081365031       -1.6880191205        0.8002172661
H                -0.0688042559       -0.1716471933       -0.0229003170
H                -0.3359676289       -0.6909845999        2.9712966238
H                -1.3971902245        0.2732420055        1.9354510871
H                 1.5489932563        0.9360138030        2.5085919811
H                 0.3917375126        1.9512365508        1.6143379701
H                 1.8166920249       -1.6449114852       -1.8582750391
H                 0.7226776363       -0.2549824052       -1.4977837254
H                 2.3343147827        0.0193435240       -2.2823115781
H                 0.1624360038        1.2136160823        4.5768235524
H                -1.0254540632        2.2156175949        3.6817492101
H                 0.6794305493        2.8026156636        3.9186009189



