%nprocshared=20
%mem=5GB
#p m062x/cc-pVTZ opt=(calcfc,maxcycles=900,Tight) freq IOP(7/33=1,2/16=3) scf=(maxcycle=900) 

Gaussian input prepared by ASE

0 1
C                 1.6364788500       -0.8751416985        0.4554584455
C                 0.4250871120       -0.1156573034        0.8769760141
C                 0.2279372816       -0.0622363915        2.3713856503
C                 1.9956075482       -0.6867254398       -0.9800038185
C                 1.0284325066        0.9968169376        3.0920216062
C                 2.2633220829        0.7118832592       -1.3565803113
C                 2.4661940141        1.1228641333        2.6597256174
H                 1.1643407697       -1.0892439187       -1.6250698284
H                 2.8882193514       -1.3134050906       -1.2172208160
H                 1.4751331447       -1.9571543801        0.6472724708
H                 2.4939263074       -0.5809442074        1.0948922372
H                -0.4642463350       -0.5767297859        0.4196102787
H                 0.4758481619        0.9149457252        0.4664443913
H                 0.4644183837       -1.0493479096        2.8036021229
H                -0.8460459263        0.1144557555        2.5869887913
H                 0.5284139882        1.9909126931        2.9531855514
H                 0.9898576632        0.7876607995        4.1746230385
H                 1.4307620317        1.3726037246       -1.0497067742
H                 3.2018176221        1.0981714348       -0.8590428772
H                 2.3995730876        0.8143185064       -2.4540478433
H                 2.5448860083        1.6646768123        1.7164204648
H                 2.9407618641        0.1134987428        2.5119878622
H                 3.0650437303        1.6833245938        3.4337716041



