%nprocshared=20
%mem=5GB
#p m062x/cc-pVTZ opt=(calcfc,maxcycles=900,Tight) freq IOP(7/33=1,2/16=3) scf=(maxcycle=900) 

Gaussian input prepared by ASE

0 1
C                 1.4590363837       -0.9220174495        0.4384020162
C                 0.2207753607       -0.3783767022        1.0654011603
C                -0.4223247091       -1.3391723208        2.0340476848
C                 2.2475051797        0.0733397446       -0.3442901545
C                 0.5081480457       -1.7670979305        3.1443642456
C                 1.5229534125        0.6844017346       -1.4717719508
C                 0.0026477620       -2.9348502821        3.9510548794
H                 3.1763940235       -0.4306477258       -0.7345437714
H                 2.6082583727        0.8784359829        0.3394000537
H                 1.1900540946       -1.7767721320       -0.2178140007
H                 2.1009243065       -1.3485571527        1.2363291157
H                -0.5090393249       -0.1166153971        0.2833929928
H                 0.4555281190        0.5687153608        1.5956494669
H                -0.7748342113       -2.2283275683        1.4842626936
H                -1.3261311792       -0.8647719109        2.4690452430
H                 1.5016561682       -2.0277939533        2.6943647632
H                 0.6911961741       -0.9126698551        3.8179414250
H                 0.6225262175        1.2278015022       -1.1285130118
H                 2.1810844020        1.4237361060       -2.0174680364
H                 1.1975823006       -0.0797709870       -2.2091090453
H                -0.1517723333       -3.8141448872        3.3244980571
H                -0.9731902589       -2.6863813160        4.4529143316
H                 0.7436188832       -3.2055703712        4.7570055795



