%nprocshared=20
%mem=5GB
#p m062x/cc-pVTZ opt=(calcfc,maxcycles=900,Tight) freq IOP(7/33=1,2/16=3) scf=(maxcycle=900) 

Gaussian input prepared by ASE

0 1
C                 1.4643618057       -0.9132174109        0.6008985815
C                 0.1749696827       -0.2989333731        1.0276146747
C                -0.9895872204       -0.6507216363        0.1359677450
C                 1.9252142355       -0.5027572235       -0.7571012316
C                -2.2671819734        0.0616596422        0.5127532293
C                 2.2173960933        0.9341853806       -0.8964315387
C                -3.4427221068       -0.3141560870       -0.3514190929
H                 1.1441104683       -0.7957692117       -1.5141723113
H                 2.8370813316       -1.0899242049       -1.0207078613
H                 1.3694071641       -2.0195015972        0.6272693069
H                 2.2459705493       -0.6588756124        1.3459099246
H                 0.2858252350        0.7959596980        1.0676826091
H                -0.0517134885       -0.6219607881        2.0656529828
H                -1.1548939725       -1.7410566014        0.1670624639
H                -0.7289796777       -0.4084384573       -0.9149972068
H                -2.5174538633       -0.1643053459        1.5822503753
H                -2.1108654281        1.1524254589        0.4574789971
H                 3.0121501400        1.2563914089       -0.1975549969
H                 2.5677729249        1.1710966905       -1.9445942346
H                 1.3184453744        1.5543324549       -0.6944476007
H                -3.6591589352       -1.3810992658       -0.2853481258
H                -3.2480610484       -0.0628246410       -1.4306777072
H                -4.3648328040        0.2500604965       -0.0300849848



