%nprocshared=20
%mem=5GB
#p m062x/cc-pVTZ opt=(calcfc,maxcycles=900,Tight) freq IOP(7/33=1,2/16=3) scf=(maxcycle=900) 

Gaussian input prepared by ASE

0 1
C                 1.1821926441       -1.0244425500        0.3757850653
C                 0.1363421245       -0.1164678810        0.9269132181
C                 0.6758811018        1.0529942232        1.7119215549
C                 2.1520148401       -0.3712342199       -0.5503843608
C                 1.4765183819        0.6698749367        2.9341745148
C                 1.5492569682        0.2305349567       -1.7521097978
C                 0.6892179163       -0.0826737020        3.9752097656
H                 2.9166806622       -1.1356011528       -0.8668730847
H                 2.7220270862        0.4113041019        0.0050208375
H                 0.6825652496       -1.8654258866       -0.1502339402
H                 1.7452865117       -1.4843660317        1.2136630799
H                -0.5435332445       -0.7000996124        1.5670918766
H                -0.4853532243        0.2759253085        0.0945803652
H                -0.1663308413        1.6971513953        2.0166577040
H                 1.3166616200        1.6704669271        1.0491451617
H                 2.3540517119        0.0457872536        2.6211726643
H                 1.8936780258        1.5846957836        3.3884220461
H                 1.0242921043       -0.5251934446       -2.3662479053
H                 0.7968996723        1.0283662811       -1.4783222761
H                 2.3251711891        0.7060081204       -2.3888002189
H                 0.2862869859       -1.0129976179        3.5730629057
H                -0.1705540107        0.5351304731        4.3559587835
H                 1.3448367222       -0.3366703098        4.8569885386



