%nprocshared=20
%mem=5GB
#p m062x/cc-pVTZ opt=(calcfc,maxcycles=900,Tight) freq IOP(7/33=1,2/16=3) scf=(maxcycle=900) 

Gaussian input prepared by ASE

0 1
C                 1.5817530558       -0.9173424079        0.6427984055
C                 0.1447634844       -0.5493369808        0.7897559758
C                -0.0942789074        0.9358695992        0.6802016076
C                 2.1865044584       -0.4386433899       -0.6339744839
C                -1.5466111080        1.3249004018        0.5349812447
C                 3.6565852188       -0.5160533394       -0.6835474384
C                -2.4000072472        0.9616936933        1.7222982986
H                 1.8569065432        0.6251172530       -0.8040163870
H                 1.7573107861       -1.0216303849       -1.4834885069
H                 1.6845629076       -2.0210654769        0.7120950246
H                 2.1525066522       -0.5061014387        1.5005659017
H                -0.2269739390       -0.9134514982        1.7602801312
H                -0.4521583666       -1.0759427570        0.0154006567
H                 0.4719763953        1.3165185767       -0.1867383142
H                 0.3330413201        1.4406289258        1.5711338191
H                -1.6065706328        2.4323402262        0.3691432792
H                -1.9664708907        0.8543179280       -0.3702977555
H                 4.0127848936       -1.5554443834       -0.5544459693
H                 4.0452127006       -0.1446444595       -1.6778110123
H                 4.1249520229        0.1032235724        0.1105690161
H                -2.0302078386        1.4293436860        2.6356054220
H                -2.4153950483       -0.1521260633        1.8805017920
H                -3.4635925095        1.3002098449        1.5608136094



