%nprocshared=20
%mem=5GB
#p m062x/cc-pVTZ opt=(calcfc,maxcycles=900,Tight) freq IOP(7/33=1,2/16=3) scf=(maxcycle=900) 

Gaussian input prepared by ASE

0 1
C                 1.3248997546       -1.2958400704        0.3553573648
C                 0.2519555366       -0.4604576130        0.9660048941
C                -0.9075786661       -0.1007342228        0.0709844890
C                 2.1872494185       -0.6354960637       -0.6670539371
C                -0.8981817109        1.3299744083       -0.4134608122
C                 1.5799130484       -0.4512544094       -1.9962584986
C                -0.6692001504        2.3378406006        0.6827595368
H                 3.1204704439       -1.2552728766       -0.7858434987
H                 2.5362294903        0.3515808752       -0.2802114032
H                 0.8747709652       -2.2131624225       -0.0799359562
H                 1.9814094926       -1.6492349722        1.1767895818
H                 0.6860024437        0.4662412419        1.3728436149
H                -0.1422057419       -1.0131660843        1.8448710570
H                -1.8483822489       -0.2747538917        0.6202834179
H                -0.9418371455       -0.7745832630       -0.8098665697
H                -0.0964407513        1.4507784655       -1.1881466540
H                -1.8529968184        1.5446836923       -0.9228606589
H                 1.1624516700       -1.3966875833       -2.3909244984
H                 0.7435326339        0.3084403333       -1.9668029372
H                 2.3343800808       -0.0838901719       -2.7237990913
H                 0.1603062841        2.0215000665        1.3163412297
H                -1.5829723967        2.4481892738        1.3298322005
H                -0.4263639400        3.3519174699        0.2531518343



