%nprocshared=20
%mem=5GB
#p m062x/cc-pVTZ opt=(calcfc,maxcycles=900,Tight) freq IOP(7/33=1,2/16=3) scf=(maxcycle=900) 

Gaussian input prepared by ASE

0 1
C                 1.5278585816       -0.5985248808        0.8549947313
C                 0.1096310641       -0.3418619036        1.2354134147
C                -0.8383260063       -1.3666338907        0.6642726465
C                 1.7497556324       -0.5995806436       -0.6200600488
C                -1.0238949298       -2.6122363288        1.4983838386
C                 1.6452577875        0.7219559839       -1.2620945981
C                 0.2229172311       -3.1205766493        2.1743834126
H                 0.9913957323       -1.2928489638       -1.0820178804
H                 2.7494392453       -1.0423524830       -0.8444278105
H                 1.8310172919       -1.5885314988        1.2569377529
H                 2.1840114768        0.1521938431        1.3413368492
H                -0.1865467968        0.6569204487        0.8784852462
H                 0.0216283245       -0.3126665143        2.3420563775
H                -0.4665059983       -1.6511115375       -0.3346997706
H                -1.8329868351       -0.9023711356        0.5022396567
H                -1.7982462310       -2.4159743830        2.2853918760
H                -1.4416507829       -3.4061283036        0.8561410889
H                 0.6567991950        1.1843520580       -1.0803843301
H                 2.4308642094        1.4334944822       -0.8695752416
H                 1.7868556629        0.6415592903       -2.3607204277
H                 0.4414031291       -2.5442925524        3.0742381631
H                 1.1184101176       -3.0434253316        1.4976266288
H                 0.1009741028       -4.2009818756        2.4739472963



