%nprocshared=20
%mem=5GB
#p m062x/cc-pVTZ opt=(calcfc,maxcycles=900,Tight) freq IOP(7/33=1,2/16=3) scf=(maxcycle=900) 

Gaussian input prepared by ASE

0 1
C                 1.3307268340       -1.0902766761        0.5752226488
C                -0.0255158174       -0.4719086706        0.5614230029
C                -0.0882387331        0.9734393156        0.1347884467
C                 2.2542700525       -0.6685933662       -0.5176072235
C                -0.2585300611        1.1307916871       -1.3578413918
C                 3.0545574220        0.5278440373       -0.2050934067
C                -1.4861205509        0.4339834500       -1.8845346043
H                 1.6666613044       -0.4769713079       -1.4594844373
H                 2.9446444137       -1.5119229765       -0.7583010745
H                 1.2062985097       -2.1932729570        0.5365794550
H                 1.8112187379       -0.8859167217        1.5540016940
H                -0.4665571234       -0.5752485528        1.5651603516
H                -0.6863555101       -1.0504211444       -0.1181869722
H                 0.8253821399        1.5067089628        0.4479081103
H                -0.9353942514        1.4708404284        0.6506027745
H                -0.3012032638        2.2211988537       -1.6161271809
H                 0.6321732872        0.7193480135       -1.8624420446
H                 3.7360178252        0.3469666149        0.6474171310
H                 3.6876274267        0.8317447576       -1.0907584966
H                 2.4035935596        1.3880904524        0.0589415440
H                -2.3983286671        0.9583927672       -1.5973948463
H                -1.5352331557       -0.6093446161       -1.4663072993
H                -1.4593842779        0.3613527671       -3.0096541783



