%nprocshared=20
%mem=5GB
#p m062x/cc-pVTZ opt=(calcfc,maxcycles=900,Tight) freq IOP(7/33=1,2/16=3) scf=(maxcycle=900) 

Gaussian input prepared by ASE

0 1
C                 1.3927220631       -1.1554854652        0.4720708066
C                 0.1344652637       -0.4827789747        0.9036022129
C                 0.3509304022        0.8781267698        1.5168398572
C                 2.1723742986       -0.4099831305       -0.5581693016
C                -0.9275433198        1.5892763298        1.8929701344
C                 1.4709003498       -0.2168257944       -1.8388768258
C                -1.7631356976        0.8591304725        2.9120865533
H                 3.1388297974       -0.9575826645       -0.7458772110
H                 2.4648099016        0.5850374602       -0.1456519538
H                 1.1429749070       -2.1660651564        0.0848608562
H                 2.0406010380       -1.3229256418        1.3568648510
H                -0.3874848439       -1.1270897533        1.6282517390
H                -0.5476439861       -0.3847006520        0.0327617488
H                 0.9143253917        1.5097415319        0.8091871048
H                 0.9916176863        0.7768780267        2.4170694146
H                -0.6692573883        2.6033045426        2.2961518568
H                -1.5324451338        1.7629730245        0.9867784198
H                 0.5267282149        0.3437033408       -1.7038760545
H                 2.1135554358        0.3651058840       -2.5640567290
H                 1.2226154452       -1.1876094884       -2.3178610903
H                -1.2195524683        0.7248967388        3.8480761887
H                -2.0640667794       -0.1568856532        2.5339182093
H                -2.7062893897        1.4362560288        3.1340579603



