%nprocshared=20
%mem=5GB
#p m062x/cc-pVTZ opt=(calcfc,maxcycles=900,Tight) freq IOP(7/33=1,2/16=3) scf=(maxcycle=900) 

Gaussian input prepared by ASE

0 1
C                 1.5072517063       -0.8209559335        0.6842199981
C                 0.1068339031       -0.4144734976        0.9933567893
C                -0.9761899764       -1.3962902629        0.6217694835
C                 1.9876076289       -0.4121117615       -0.6674939697
C                -1.1716546984       -1.6419171257       -0.8557838072
C                 1.7714931539        1.0110602148       -0.9796850644
C                -0.3410657548       -2.7629817574       -1.4243451217
H                 1.4755898601       -1.0448696322       -1.4463335048
H                 3.0736142062       -0.6547717221       -0.7538709201
H                 1.6240449523       -1.9201380356        0.7925460987
H                 2.1792689530       -0.3743423490        1.4455169219
H                -0.0977820047        0.5503166020        0.5034612658
H                 0.0217492896       -0.2267685651        2.0845868141
H                -1.9243736232       -1.0128256019        1.0353225824
H                -0.7900702461       -2.3611458075        1.1370926676
H                -2.2519505914       -1.8843465417       -1.0338543040
H                -0.9707327252       -0.7172447263       -1.4231209947
H                 0.7422100699        1.3154259146       -0.7116981362
H                 2.4825976610        1.6707186305       -0.3994117799
H                 1.9270643703        1.2173389750       -2.0598419834
H                -0.4683244305       -3.6834929206       -0.8533438539
H                 0.7517101176       -2.4952123353       -1.4242487784
H                -0.6404211486       -2.9683812380       -2.4920911128



