%nprocshared=20
%mem=5GB
#p m062x/cc-pVTZ opt=(calcfc,maxcycles=900,Tight) freq IOP(7/33=1,2/16=3) scf=(maxcycle=900) 

Gaussian input prepared by ASE

0 1
O                 0.2042813576       -0.7611791762        1.0949253625
O                 0.1463090998        0.6807687276       -1.4046438117
C                -1.1949494109       -0.8644629837        0.8213335468
C                 0.6837949693        0.5296219712        0.9119437945
C                 0.6634461791        1.1770796474       -0.2288263419
H                -1.7907023892       -0.2330011520        1.5415865050
H                -1.4304390876       -0.5254025327       -0.2276060763
H                -1.4752442647       -1.9131550346        0.9221796538
H                 1.1483396836        0.9523711738        1.8007123190
H                 1.0343125343        2.1751366108       -0.3248134991
H                -0.1416920166       -0.2741784726       -1.2067884563



