%nprocshared=20
%mem=5GB
#p m062x/cc-pVTZ opt=(calcfc,maxcycles=900,Tight) freq IOP(7/33=1,2/16=3) scf=(maxcycle=900) 

Gaussian input prepared by ASE

0 1
O                -0.2813039843       -0.3960820412        1.7666811080
O                 1.7985829401        0.9055463998        3.1513995751
C                -1.2411042574       -0.8994757448        0.8346162042
C                 0.4640922044        0.6322901300        1.2041703443
C                 1.4294849874        1.2267331382        1.8641902718
H                -0.7299310704       -1.4002893306       -0.0373457819
H                -1.8666967694       -1.6629194526        1.3791154456
H                -1.8836618687       -0.1025250015        0.4598104025
H                 0.2010816970        0.9122563554        0.1859009518
H                 2.0143589134        2.0186704745        1.4474999360
H                 1.1864657167        0.1479464844        3.4435817325



