%nprocshared=20
%mem=5GB
#p m062x/cc-pVTZ opt=(calcfc,maxcycles=900,Tight) freq IOP(7/33=1,2/16=3) scf=(maxcycle=900) 

Gaussian input prepared by ASE

0 1
O                 0.2053416740       -0.7756449141        0.9822956726
O                -0.8719323390        1.5237598683        2.4299551814
C                -1.2147451733       -0.8425722953        0.8331620346
C                 0.6967794558        0.5225277786        0.9291945753
C                 0.2124272487        1.5524279578        1.5816365884
H                -1.6515407028        0.1747534644        0.6170881026
H                -1.4521225057       -1.5342787154       -0.0246759106
H                -1.6649086635       -1.2444929087        1.7410732707
H                 1.5899877417        0.6140007414        0.3141825225
H                 0.6337042061        2.5297782278        1.4807145158
H                -1.1097140601        0.5441375072        2.5634296086



