%nprocshared=20
%mem=5GB
#p m062x/cc-pVTZ opt=(calcfc,maxcycles=900,Tight) freq IOP(7/33=1,2/16=3) scf=(maxcycle=900) 

Gaussian input prepared by ASE

0 1
O                 0.1641499570       -0.7998127739        0.5397775239
O                 2.2920560322        2.1228266905        0.0513473353
C                -1.1959725905       -0.8733013727        0.9734050734
C                 0.5972038409        0.5189327005        0.4853912457
C                 1.8181639161        0.8317826797        0.1215871703
H                -1.3123809642       -0.4338926003        2.0057804903
H                -1.8733404903       -0.3131896847        0.2676152072
H                -1.4811642504       -1.9253423143        0.9925292542
H                -0.1376689475        1.2723855901        0.7623369046
H                 2.5547147853        0.1071185356       -0.1526896707
H                 1.5284221494        2.7345999951        0.3281365274



