%nprocshared=20
%mem=5GB
#p m062x/cc-pVTZ opt=(calcfc,maxcycles=900,Tight) freq IOP(7/33=1,2/16=3) scf=(maxcycle=900) 

Gaussian input prepared by ASE

0 1
O                 0.1930891599       -0.7563563258        1.1152186931
O                 0.1099306822        0.6974329173       -1.4041410862
C                -1.2102850012       -0.8654008635        0.8661865210
C                 0.6764871794        0.5300566476        0.9126077934
C                 0.6356025506        1.1798031794       -0.2263083192
H                -1.7380716595       -1.1803638408        1.8120562511
H                -1.6428574450        0.1185024634        0.5263232629
H                -1.3937809391       -1.6327784239        0.1138893188
H                 1.1816361688        0.9485859057        1.7809890050
H                 1.0211100219        2.1723273737       -0.3219786031
H                -0.0249061212       -0.3023173541       -1.2763366606



