%nprocshared=20
%mem=5GB
#p m062x/cc-pVTZ opt=(calcfc,maxcycles=900,Tight) freq IOP(7/33=1,2/16=3) scf=(maxcycle=900) 

Gaussian input prepared by ASE

0 1
O                 0.1863978096       -0.7727965154        1.0834642085
O                -0.7905083764        1.5971335331        2.5135291292
C                -1.2121581575       -0.9021620558        0.8176211466
C                 0.6575106421        0.5257672210        0.9372859558
C                 0.2389956368        1.5782582150        1.5991620152
H                -1.4584718952       -0.5585488866       -0.2281749676
H                -1.4641808860       -1.9965448095        0.9151026465
H                -1.8142053951       -0.3344730004        1.5273805566
H                 1.5085053391        0.5974019888        0.2626715061
H                 0.6651914489        2.5473401253        1.4504661151
H                -1.1039242615        0.6354256025        2.6179507707



