%nprocshared=20
%mem=5GB
#p m062x/cc-pVTZ opt=(calcfc,maxcycles=900,Tight) freq IOP(7/33=1,2/16=3) scf=(maxcycle=900) 

Gaussian input prepared by ASE

0 1
O                 0.2472969442       -0.7910025813        1.0127930186
O                 2.3659570008       -0.0972463943       -0.6706231406
C                -1.1743208226       -0.8706813513        0.8862189740
C                 0.6836679383        0.5205247628        0.8747367209
C                 1.6876484849        0.8296858912        0.0889794564
H                -1.6169818635       -1.2936801804        1.8336118035
H                -1.6210223729        0.1465836816        0.6956375271
H                -1.4338132472       -1.5216086332        0.0510857420
H                 0.1443157548        1.2571560696        1.4671062930
H                 2.0479561442        1.8287017580       -0.0335716698
H                 1.9204494867       -0.9924975589       -0.4860589319



