%nprocshared=20
%mem=5GB
#p m062x/cc-pVTZ opt=(calcfc,maxcycles=900,Tight) freq IOP(7/33=1,2/16=3) scf=(maxcycle=900) 

Gaussian input prepared by ASE

0 1
O                 0.1965441591       -0.8042846896        1.0014240476
O                -1.3237175704        1.9094228966        0.2098905535
C                -1.2028490183       -1.0786060453        0.9023619516
C                 0.5811266182        0.5284083477        0.9265323894
C                -0.0241526716        1.6381650170        0.5757487863
H                -1.8097724646       -0.1556380587        0.6738799915
H                -1.3493823695       -1.8300205607        0.0749588376
H                -1.5489202065       -1.5107205304        1.8415115480
H                 1.6393064272        0.5956005211        1.1718258331
H                 0.5571088570        2.5338705834        0.6278991830
H                -1.6778187067        1.1108406061       -0.3105844705



