%nprocshared=20
%mem=5GB
#p m062x/cc-pVTZ opt=(calcfc,maxcycles=900,Tight) freq IOP(7/33=1,2/16=3) scf=(maxcycle=900) 

Gaussian input prepared by ASE

0 1
O                 0.2065262381       -0.7629533541        1.0941084017
O                 0.1475242071        0.6808164736       -1.4031727927
C                -1.1924264654       -0.8638399487        0.8182098725
C                 0.6817180466        0.5296554415        0.9126189902
C                 0.6642800601        1.1781403488       -0.2276157495
H                -1.7903058818       -0.2349385900        1.5389409350
H                -1.4281708659       -0.5261987828       -0.2311302682
H                -1.4743089547       -1.9116106242        0.9240825979
H                 1.1461998921        0.9533753342        1.8009580234
H                 1.0379338240        2.1748309509       -0.3269324067
H                -0.1495510025       -0.2711238234       -1.2042468500



