%nprocshared=20
%mem=5GB
#p m062x/cc-pVTZ opt=(calcfc,maxcycles=900,Tight) freq IOP(7/33=1,2/16=3) scf=(maxcycle=900) 

Gaussian input prepared by ASE

0 1
O                 0.1974746269       -0.7611088490        1.0519602234
O                -1.3465152961        1.7579543031        0.2084706836
C                -1.1997141638       -0.9655799142        0.8296499969
C                 0.6316334307        0.5506077359        0.9088208019
C                -0.0181154481        1.6318626705        0.5487011263
H                -1.8213614759       -0.3378098193        1.5309982038
H                -1.4878612372       -0.7164103079       -0.2312823673
H                -1.4021335218       -2.0198423090        1.0195114367
H                 1.6925767240        0.6189219376        1.1415452493
H                 0.4932917793        2.5687451977        0.4888106589
H                -1.7483030761        0.8251005147        0.2571115031



