%nprocshared=20
%mem=5GB
#p m062x/cc-pVTZ opt=(calcfc,maxcycles=900,Tight) freq IOP(7/33=1,2/16=3) scf=(maxcycle=900) 

Gaussian input prepared by ASE

0 1
O                 0.2188804002       -0.7829292224        1.1081873165
O                 0.1350807700        0.6742861574       -1.4056020717
C                -1.1730204233       -0.9134916572        0.8099720951
C                 0.6712160184        0.5163259205        0.9160630800
C                 0.6450886033        1.1645567849       -0.2241501126
H                -1.3966169838       -0.5920192306       -0.2478984249
H                -1.4394813481       -2.0033457019        0.9190979255
H                -1.7752940698       -0.3182494134        1.4965893726
H                 1.1274788902        0.9536926120        1.8020443095
H                 1.0145078795        2.1631432574       -0.3202102256
H                -0.1347188319       -0.2894483256       -1.2254922135



