%nprocshared=20
%mem=5GB
#p m062x/cc-pVTZ opt=(calcfc,maxcycles=900,Tight) freq IOP(7/33=1,2/16=3) scf=(maxcycle=900) 

Gaussian input prepared by ASE

0 1
O                 0.1910679131       -0.7765345230        1.1003172265
O                -0.7482777511        1.6265430577        2.5645124447
C                -1.2018107642       -0.9220276295        0.8138080357
C                 0.6420939988        0.5275909976        0.9408955951
C                 0.2597806421        1.5779292454        1.6276255876
H                -1.4428803681       -0.5902605032       -0.2370230639
H                -1.4428155897       -2.0197112641        0.9015521095
H                -1.8114071143       -0.3607997555        1.5222610853
H                 1.4474641811        0.6143457903        0.2140664230
H                 0.7122057018        2.5328383274        1.4653502025
H                -1.1794088334        0.7057740726        2.5825680796



