%nprocshared=20
%mem=5GB
#p m062x/cc-pVTZ opt=(calcfc,maxcycles=900,Tight) freq IOP(7/33=1,2/16=3) scf=(maxcycle=900) 

Gaussian input prepared by ASE

0 1
O                 0.1946165594       -0.7673163992        1.2115743894
O                 1.4064874305        0.8109990566        3.2120814067
C                -1.1802116108       -0.9003166067        0.8434368915
C                 0.6521293662        0.5227676863        0.9750405776
C                 1.2680006619        1.2157816518        1.9031602955
H                -1.3578852256       -0.6791503363       -0.2483266119
H                -1.4753844278       -1.9722820863        1.0290567413
H                -1.7951372310       -0.2348147457        1.4496249107
H                 0.5064031882        0.9092666417       -0.0318410482
H                 1.7022776551        2.1715158351        1.7010495485
H                 0.9113664977       -0.0730731100        3.2974465409



