%nprocshared=20
%mem=5GB
#p m062x/cc-pVTZ Opt=(ModRedun,Loose,maxcycles=900) Int(Grid=SG1) scf=(maxcycle=900) 

Gaussian input prepared by ASE

0 2
O                 3.5368421076       -1.3902279678        2.6767750171
O                 3.2410485854       -0.5622330109        1.6975526503
C                -0.2713114826       -0.1621403324        1.9550504464
C                 0.8778007443       -0.9899404990        1.3910496712
C                -1.2337339907       -0.9675915557        2.8223973107
H                -0.8313971594        0.3048886273        1.1167865468
H                 0.1253796343        0.6794633800        2.5621928425
H                 2.0829769600       -0.4472467199        1.7465763526
H                 0.9292394876       -2.0229058381        1.7966676859
H                 0.8986381062       -1.0076368627        0.2804630456
H                -1.7040406259       -1.7871754404        2.2381338642
H                -2.0398903808       -0.3107021347        3.2117099784
H                -0.7035245423       -1.4177241231        3.6886420467
H                 3.6025102672       -0.8028021791        3.4712492619

4 8 F
8 2 F
4 8 2 F

