%nprocshared=20
%mem=5GB
#p m062x/cc-pVTZ Opt=(ModRedun,Loose,maxcycles=900) Int(Grid=SG1) scf=(maxcycle=900) 

Gaussian input prepared by ASE

0 2
O                -0.4198217822        1.4257856615        1.8797299200
O                 0.1246482446        0.7549607634        2.8724495410
C                 3.5374834384        0.6826124672        1.9362125799
C                 2.2003043071       -0.0491684698        1.9201648060
C                 4.1113476974        0.8941403600        3.3337944569
H                 3.4262797700        1.6656821534        1.4305386571
H                 4.2663952206        0.1002171702        1.3330659379
H                 1.2514647707        0.6768731443        2.5879466407
H                 1.7976685740       -0.1672560288        0.8915107801
H                 2.2353098024       -1.0315317614        2.4377428084
H                 3.4292096560        1.5134547714        3.9546061855
H                 5.0909731268        1.4132261758        3.2718257244
H                 4.2650578542       -0.0766134635        3.8516086435
H                -0.8135743250        0.7192916694        1.3084192653

4 8 F
8 2 F
4 8 2 F

