%nprocshared=20
%mem=5GB
#p m062x/cc-pVTZ Opt=(ModRedun,Loose,maxcycles=900) Int(Grid=SG1) scf=(maxcycle=900) 

Gaussian input prepared by ASE

0 2
O                 0.3455977249       -2.9321182031       -1.2585542003
O                 0.3379628604       -3.0457735030        0.0525407931
C                -0.3230381393       -0.1833270048        1.9021392214
C                 0.7975443116       -1.0168624530        1.2911379716
C                -1.3020693302       -0.9685683650        2.7694299879
H                -0.8842233101        0.3281742394        1.0910066421
H                 0.1262093075        0.6194548788        2.5250360980
H                 0.2867245554       -1.9421397638        0.4214883038
H                 1.5195807685       -0.3980663718        0.7167303856
H                 1.3286441692       -1.6486966830        2.0346892187
H                -1.8146787018       -1.7674495976        2.1921170240
H                -2.0867336910       -0.2894715610        3.1645066409
H                -0.7814583650       -1.4458276770        3.6269316509
H                -0.6132925242       -2.8427022210       -1.4889993398

4 8 F
8 2 F
4 8 2 F

