%nprocshared=20
%mem=5GB
#p m062x/cc-pVTZ opt=(ts,calcfc,noeigentest,maxcycles=900) freq scf=(maxcycle=900) IOP(7/33=1,2/16=3) 

Gaussian input prepared by ASE

0 2
O                 1.7941500000        0.5492980000        0.4595050000
O                 1.6537860000       -0.3439310000       -0.5982120000
C                -1.6544190000       -0.3673920000       -0.0647380000
C                -0.4363770000       -1.1672550000        0.3046570000
C                -1.3801130000        1.1343280000       -0.0958440000
H                -2.4402500000       -0.5747510000        0.6712710000
H                -2.0482310000       -0.6962960000       -1.0271930000
H                 0.5690380000       -0.7630010000       -0.5314550000
H                 0.0368080000       -0.8958910000        1.2421930000
H                -0.4860680000       -2.2391240000        0.1338330000
H                -0.9576510000        1.4652280000        0.8535260000
H                -2.2888600000        1.7031870000       -0.2851270000
H                -0.6645530000        1.3684290000       -0.8857950000
H                 1.5217340000        1.3911940000        0.0739500000



