%nprocshared=20
%mem=5GB
#p m062x/cc-pVTZ Opt=(ModRedun,Loose,maxcycles=900) Int(Grid=SG1) scf=(maxcycle=900) 

Gaussian input prepared by ASE

0 2
O                 2.2320807869       -3.3919585773        3.1089416645
O                 2.4664610334       -2.1404950105        2.7759991157
C                -0.2938935644       -0.2060333308        1.9639354286
C                 0.7891417127       -1.1013376956        1.3729417037
C                -1.3111025112       -0.9650116470        2.8104206407
H                -0.8317789505        0.3068636247        1.1380332525
H                 0.1748370460        0.5910314840        2.5797778077
H                 1.4375268436       -1.7668440874        2.3779608251
H                 0.3808288970       -1.8737057545        0.6867073879
H                 1.6058272713       -0.5280018551        0.8846173009
H                -1.8019980949       -1.7599439128        2.2092766739
H                -2.0894101565       -0.2763683783        3.2015265698
H                -0.8250433511       -1.4509372469        3.6832001857
H                 1.8494747166       -3.3231933258        4.0196856599

4 8 F
8 2 F
4 8 2 F

