%nprocshared=20
%mem=5GB
#p m062x/cc-pVTZ Opt=(ModRedun,Loose,maxcycles=900) Int(Grid=SG1) scf=(maxcycle=900) 

Gaussian input prepared by ASE

0 2
O                 1.9016187963       -0.6879050465       -1.6764849266
O                 1.0457709961       -1.4434236543       -1.0217620264
C                -0.2996105979       -0.1513802642        1.9202332781
C                 0.8389415195       -0.9873961028        1.3470095055
C                -1.2860602681       -0.9491350552        2.7674662341
H                -0.8627812190        0.3348937617        1.0950818960
H                 0.1236494111        0.6743440461        2.5312266235
H                 0.8928706670       -0.8759719464       -0.0160905548
H                 1.8382807660       -0.6714420082        1.7153617695
H                 0.7039064893       -2.0829375394        1.4723271477
H                -1.7768098197       -1.7438183309        2.1658739977
H                -2.0813433577       -0.2835762708        3.1643446814
H                -0.7639227676       -1.4326037491        3.6205499243
H                 1.3288251752       -0.0018377673       -2.1028531313

4 8 F
8 2 F
4 8 2 F

