%nprocshared=20
%mem=5GB
#p m062x/cc-pVTZ Opt=(ModRedun,Loose,maxcycles=900) Int(Grid=SG1) scf=(maxcycle=900) 

Gaussian input prepared by ASE

0 2
O                 3.6133941462        0.1928940840        0.2906792956
O                 2.4567280426       -0.1913938486       -0.2056998032
C                -0.2764684074       -0.1407890236        1.9522022301
C                 0.8566717300       -1.0088117909        1.4170958814
C                -1.2762332568       -0.9393186582        2.7829368499
H                -0.8110527485        0.3373781418        1.1036304157
H                 0.1411108208        0.6777655649        2.5766047557
H                 1.7666638866       -0.2510100681        0.7307896132
H                 1.4174871647       -1.5370969951        2.2174646097
H                 0.5177772168       -1.7298648253        0.6428975602
H                -1.7492802316       -1.7306389936        2.1630106152
H                -2.0738933806       -0.2782623056        3.1825604424
H                -0.7612108513       -1.4284318830        3.6371274054
H                 3.5290193398        1.1780663248        0.3444123194

4 8 F
8 2 F
4 8 2 F

