%nprocshared=20
%mem=5GB
#p m062x/cc-pVTZ Opt=(ModRedun,Loose,maxcycles=900) Int(Grid=SG1) scf=(maxcycle=900) 

Gaussian input prepared by ASE

0 2
O                -0.5856004713        0.0044894008       -0.5918191790
O                -0.4480933199       -0.8271257139        0.4188508880
C                 1.3604060006        0.9638910936        2.8744115413
C                 1.1898015977       -0.3609063219        2.1398267296
C                 1.1299886176        0.8446875766        4.3777404112
H                 0.6547503470        1.7204264513        2.4691921796
H                 2.3788951358        1.3641895061        2.6827775085
H                 0.2311634313       -0.2505752448        1.1691540817
H                 2.1137965452       -0.6938074289        1.6205970117
H                 0.7935240842       -1.1768239953        2.7812255856
H                 0.0832296640        0.5378673237        4.5885172494
H                 1.3161017000        1.8213769127        4.8721047013
H                 1.8083789709        0.0874589858        4.8255268780
H                 0.1119618438       -0.2882258655       -1.2307990530

4 8 F
8 2 F
4 8 2 F

