%nprocshared=20
%mem=5GB
#p m062x/cc-pVTZ Opt=(ModRedun,Loose,maxcycles=900) Int(Grid=SG1) scf=(maxcycle=900) 

Gaussian input prepared by ASE

0 2
O                 3.9268017835       -1.8786034406        1.2385633524
O                 2.7071844964       -1.6463352393        0.8020647206
C                 1.4456611916        0.9000680745        2.9295502781
C                 1.1608946379       -0.4006655056        2.1873851594
C                 1.1938399804        0.8332950483        4.4326892539
H                 0.8236254189        1.7103842229        2.4925633024
H                 2.5003940240        1.2088031186        2.7667502015
H                 2.2808540098       -0.8612427451        1.5494783623
H                 0.8286711324       -1.2343962552        2.8421445730
H                 0.4504274250       -0.2681999325        1.3436795109
H                 0.1440124154        0.5459713374        4.6553482283
H                 1.3877889963        1.8282737695        4.8858529258
H                 1.8638752069        0.0930672951        4.9197590628
H                 3.8244005515       -2.6907420984        1.7958025095

4 8 F
8 2 F
4 8 2 F

