%nprocshared=20
%mem=5GB
#p m062x/cc-pVTZ opt=(ts,calcfc,noeigentest,maxcycles=900) freq scf=(maxcycle=900) IOP(7/33=1,2/16=3) 

Gaussian input prepared by ASE

0 2
O                 1.8057760000        0.5339940000        0.5427840000
O                 1.6758820000       -0.0930090000       -0.6931990000
C                -1.2203590000       -0.1563480000        0.6185390000
C                -0.3609350000       -1.2109430000       -0.0124520000
C                -1.8726010000        0.7632870000       -0.4070590000
H                -0.6224470000        0.4218070000        1.3242200000
H                -1.9952050000       -0.6484800000        1.2181710000
H                 0.5935260000       -0.5230260000       -0.7118360000
H                 0.2618200000       -1.7965820000        0.6532640000
H                -0.8359500000       -1.7984760000       -0.7965250000
H                -1.1133560000        1.2787420000       -0.9972870000
H                -2.4980370000        1.5144830000        0.0713440000
H                -2.4957340000        0.1968380000       -1.0990390000
H                 1.5754960000        1.4508460000        0.3468380000



