%nprocshared=20
%mem=5GB
#p m062x/cc-pVTZ Opt=(ModRedun,Loose,maxcycles=900) Int(Grid=SG1) scf=(maxcycle=900) 

Gaussian input prepared by ASE

0 2
O                 1.4630444856       -0.9241079899        5.1015148920
O                 1.8641740294       -1.7353102789        4.1460088296
C                 3.3969728723        0.7575733781        2.2034999506
C                 2.1970858675       -0.1747874218        2.3250870163
C                 4.3690521145        0.6834039401        3.3768968065
H                 3.0372842436        1.8046171468        2.1095754234
H                 3.9501053188        0.5148357031        1.2710808079
H                 2.3833468523       -1.0376577121        3.3710923592
H                 1.2550064802        0.3572750911        2.5772481165
H                 2.0461476395       -0.8091245245        1.4256515814
H                 3.9012209657        1.0533420886        4.3142065912
H                 5.2668433591        1.3038222715        3.1719378709
H                 4.7009979272       -0.3637650398        3.5423369314
H                 0.5059361551       -0.7772669246        4.8942661641

4 8 F
8 2 F
4 8 2 F

