%nprocshared=20
%mem=5GB
#p m062x/cc-pVTZ Opt=(ModRedun,Loose,maxcycles=900) Int(Grid=SG1) scf=(maxcycle=900) 

Gaussian input prepared by ASE

0 2
O                 0.3691662568       -2.8512964202       -1.2963108794
O                 0.3214634991       -3.0110342921        0.0091216770
C                -0.3183850376       -0.1776293810        1.9079175195
C                 0.7983249811       -1.0234851892        1.3068388343
C                -1.3002456512       -0.9670733958        2.7681658691
H                -0.8751316898        0.3241925321        1.0877307647
H                 0.1339001717        0.6303932532        2.5217742228
H                 0.2589967513       -1.9275508292        0.4321069616
H                 1.5224488454       -0.4113996046        0.7278870433
H                 1.3240495031       -1.6512256437        2.0576421766
H                -1.7935924423       -1.7634151802        2.1709066655
H                -2.0862774967       -0.2961834235        3.1743884349
H                -0.7816153577       -1.4488939310        3.6243159263
H                -0.5838067553       -2.8115970719       -1.5624632606

4 8 F
8 2 F
4 8 2 F

