%nprocshared=20
%mem=5GB
#p m062x/cc-pVTZ opt=(ts,calcfc,noeigentest,maxcycles=900) freq scf=(maxcycle=900) IOP(7/33=1,2/16=3) 

Gaussian input prepared by ASE

0 2
O                 1.8675560000       -0.4301240000       -0.5706800000
O                 1.6435950000       -0.0182470000        0.7407910000
C                -1.2270040000        0.1841760000       -0.6199530000
C                -0.3457890000        1.1854240000        0.0660000000
C                -1.9160620000       -0.7597900000        0.3594820000
H                -0.6354370000       -0.3802530000       -1.3424590000
H                -1.9797760000        0.7215320000       -1.2087780000
H                 0.5681970000        0.4292020000        0.7487320000
H                 0.3148480000        1.7697630000       -0.5632660000
H                -0.8153080000        1.7578850000        0.8645130000
H                -1.1768940000       -1.3150320000        0.9388640000
H                -2.5514010000       -1.4770650000       -0.1562880000
H                -2.5375550000       -0.2060800000        1.0635420000
H                 1.6572470000       -1.3718440000       -0.5389180000



