%nprocshared=20
%mem=5GB
#p m062x/cc-pVTZ Opt=(ModRedun,Loose,maxcycles=900) Int(Grid=SG1) scf=(maxcycle=900) 

Gaussian input prepared by ASE

0 2
O                 5.1545325068       -2.6153394887        2.0676070840
O                 3.9963483485       -2.1008984221        2.4224390786
C                 2.2636064060       -1.6624013262       -0.6576126757
C                 2.6153251796       -1.0891747811        0.7104202670
C                 2.8680882202       -3.0347390994       -0.9379519571
H                 2.6058699158       -0.9592274730       -1.4468531981
H                 1.1588458641       -1.7405868949       -0.7452123445
H                 3.4423405432       -1.9229872322        1.4133910024
H                 3.1641752756       -0.1250545343        0.6518964951
H                 1.7348769627       -0.9906348984        1.3806820358
H                 3.9779112608       -2.9928347483       -0.9095496019
H                 2.5602319483       -3.3931280783       -1.9428091836
H                 2.5277029847       -3.7796128028       -0.1873372840
H                 4.9685317457       -3.5851992526        1.9944876937

4 8 F
8 2 F
4 8 2 F

