%nprocshared=20
%mem=5GB
#p m062x/cc-pVTZ opt=(calcfc,maxcycles=900,Tight) freq IOP(7/33=1,2/16=3) scf=(maxcycle=900) 

Gaussian input prepared by ASE

0 1
O                 0.1959178219       -0.7127901463        1.1129228534
O                 0.4775679402        2.8959527728        0.4300222571
C                -1.2053999444       -0.8869696237        0.8908039721
C                 0.6632264186        0.5802837109        0.9150192522
C                -0.0385672568        1.6242639723        0.5427789120
H                -1.6616546735       -1.3517811872        1.8117881265
H                -1.7176639646        0.0935989656        0.6745575261
H                -1.3506233704       -1.5643042834        0.0490094157
H                 1.7270311130        0.6532650891        1.1327839433
H                -1.0817974035        1.5811919410        0.3132386081
H                 1.4097773714        2.8746245861        0.8356652342



