%nprocshared=20
%mem=5GB
#p m062x/cc-pVTZ opt=(calcfc,maxcycles=900,Tight) freq IOP(7/33=1,2/16=3) scf=(maxcycle=900) 

Gaussian input prepared by ASE

0 1
O                 0.2564032099       -0.8135267659        1.0476923850
O                 2.3521306838       -0.0948508841       -0.6831062790
C                -1.1588916442       -0.9203035390        0.8776748370
C                 0.6750315466        0.5004664934        0.8810934947
C                 1.6660176064        0.8206336450        0.0833393694
H                -1.3783397326       -1.6023807137        0.0064439582
H                -1.6214249702       -1.3629307675        1.8054871936
H                -1.6007948462        0.0557326365        0.6762670315
H                 0.1520155503        1.2416756916        1.4823350121
H                 2.0091037725        1.8237524031       -0.0542023687
H                 1.9452733298       -1.0016618396       -0.4682190420



