%nprocshared=20
%mem=5GB
#p m062x/cc-pVTZ opt=(calcfc,maxcycles=900,Tight) freq IOP(7/33=1,2/16=3) scf=(maxcycle=900) 

Gaussian input prepared by ASE

0 1
O                 0.1921130396       -0.7549451274        1.1245511282
O                 0.1084232591        0.6953276351       -1.4045920614
C                -1.2097486375       -0.8670241567        0.8684478297
C                 0.6770321770        0.5294418224        0.9129223176
C                 0.6335488257        1.1779339547       -0.2266123122
H                -1.7171504009       -1.3047314439        1.7758538917
H                -1.6674812027        0.1407660236        0.6550665717
H                -1.3876143527       -1.5415465402        0.0306689201
H                 1.1832573915        0.9503640011        1.7795183721
H                 1.0202972453        2.1699924967       -0.3221036690
H                -0.0268917137       -0.3043551881       -1.2767654167



