%nprocshared=20
%mem=5GB
#p m062x/cc-pVTZ opt=(calcfc,maxcycles=900,Tight) freq IOP(7/33=1,2/16=3) scf=(maxcycle=900) 

Gaussian input prepared by ASE

0 1
O                 0.2324238279       -0.8068201204        1.1491576646
O                 2.9277619886       -0.0187896451        1.5803354417
C                -1.1613213860       -0.8976144055        0.8448593792
C                 0.6902272179        0.4880023912        0.9407497002
C                 1.9423760127        0.8308485974        1.1293018006
H                -1.3641736717       -0.5422306647       -0.2063224923
H                -1.4553708706       -1.9822004004        0.9337403685
H                -1.7427559477       -0.3002398669        1.5474030939
H                -0.0581804897        1.2132965349        0.6272812357
H                 2.2988418459        1.8219171182        0.9460304532
H                 2.4687516799       -0.8984392417        1.8029150089



