%nprocshared=20
%mem=5GB
#p m062x/cc-pVTZ opt=(calcfc,maxcycles=900,Tight) freq IOP(7/33=1,2/16=3) scf=(maxcycle=900) 

Gaussian input prepared by ASE

0 1
O                 0.2032616285       -0.7742225793        1.0844252354
O                -1.3681709991        1.7273609508        0.2239394306
C                -1.1840886408       -1.0047225643        0.8285038465
C                 0.6272055032        0.5368240309        0.9083243069
C                -0.0364760568        1.6118095541        0.5549053888
H                -1.4480797896       -0.7617386003       -0.2409340651
H                -1.3742873865       -2.1010498690        1.0090103233
H                -1.8161383183       -0.4142969981        1.4921310128
H                 1.6937395763        0.6176015037        1.1093423181
H                 0.4662193124        2.5539133115        0.5038077751
H                -1.7526372408        0.7859895619        0.2193397276



