%nprocshared=20
%mem=5GB
#p m062x/cc-pVTZ opt=(calcfc,maxcycles=900,Tight) freq IOP(7/33=1,2/16=3) scf=(maxcycle=900) 

Gaussian input prepared by ASE

0 1
O                 0.2160237831       -0.7344994433        1.1277945424
O                 0.4277654135        2.8714425969        0.4236208343
C                -1.1790423760       -0.9199207506        0.8772429100
C                 0.6635019200        0.5639686166        0.9196427365
C                -0.0633924343        1.5910230803        0.5484881241
H                -1.3076748729       -1.6197132253        0.0019291645
H                -1.6569572239       -1.3810845031        1.7880761008
H                -1.6731433866        0.0258535828        0.6539375996
H                 1.7273920150        0.6521388393        1.1312840549
H                -1.1076938648        1.5318768056        0.3275597865
H                 1.3666156585        2.8692060422        0.8142239005



