%nprocshared=20
%mem=5GB
#p m062x/cc-pVTZ opt=(calcfc,maxcycles=900,Tight) freq IOP(7/33=1,2/16=3) scf=(maxcycle=900) 

Gaussian input prepared by ASE

0 1
O                 0.1673821513       -0.7541590699        1.1050666489
O                -0.7395300254        1.6423927316        2.5520097977
C                -1.2278848612       -0.8757726731        0.8190476543
C                 0.6478258302        0.5386814053        0.9397773964
C                 0.2660223093        1.5984167009        1.6122052324
H                -1.8510250863       -0.2824686173        1.5485108386
H                -1.4527065849       -0.5146424574       -0.2248545777
H                -1.4835620722       -1.9326094937        0.8978845637
H                 1.4643019874        0.6122967128        0.2239732045
H                 0.7306464703        2.5511495679        1.4732895631
H                -1.1266778796        0.7038097916        2.6085265538



