%nprocshared=20
%mem=5GB
#p m062x/cc-pVTZ opt=(calcfc,maxcycles=900,Tight) freq IOP(7/33=1,2/16=3) scf=(maxcycle=900) 

Gaussian input prepared by ASE

0 1
O                 0.2281031055       -0.7483797214        1.1170156821
O                 0.3917447211        2.8542450969        0.4262697959
C                -1.1785966076       -0.8660319419        0.8918032441
C                 0.6725978186        0.5536238669        0.9251973669
C                -0.0772171756        1.5664956713        0.5607248681
H                -1.4479599153       -1.9552402440        1.0079869908
H                -1.7622279390       -0.2585730529        1.6408425469
H                -1.4371608927       -0.5289330916       -0.1121883075
H                 1.7366921594        0.6558504237        1.1293569488
H                -1.1202576965        1.4886274509        0.3396454660
H                 1.3386386592        2.8635353258        0.7968384153



