%nprocshared=20
%mem=5GB
#p m062x/cc-pVTZ opt=(calcfc,maxcycles=900,Tight) freq IOP(7/33=1,2/16=3) scf=(maxcycle=900) 

Gaussian input prepared by ASE

0 1
O                 0.2472969443       -0.7910025813        1.0127930203
O                 2.3659570238       -0.0972464002       -0.6706231141
C                -1.1743208224       -0.8706813511        0.8862189744
C                 0.6836679387        0.5205247625        0.8747367210
C                 1.6876484956        0.8296858881        0.0889794685
H                -1.6169818641       -1.2936801805        1.8336118035
H                -1.6210223722        0.1465836819        0.6956375276
H                -1.4338132466       -1.5216086327        0.0510857421
H                 0.1443157459        1.2571560720        1.4671062813
H                 2.0479561547        1.8287017550       -0.0335716580
H                 1.9204495089       -0.9924975647       -0.4860589069



