%nprocshared=20
%mem=5GB
#p m062x/cc-pVTZ opt=(calcfc,maxcycles=900,Tight) freq IOP(7/33=1,2/16=3) scf=(maxcycle=900) 

Gaussian input prepared by ASE

0 1
O                 0.1721349744       -0.7417471015        1.2855138764
O                 1.4269494499        0.8079334047        3.1970564475
C                -1.1997343378       -0.8709974545        0.9052038628
C                 0.6394583338        0.5328377320        0.9911917061
C                 1.2646429854        1.2423474007        1.9004288596
H                -1.4742485670       -1.9621774932        0.9851916187
H                -1.8613664625       -0.2844321759        1.6044004128
H                -1.3647514154       -0.5226407070       -0.1145544912
H                 0.5119421020        0.8610489096       -0.0385874953
H                 1.6912559908        2.2047227558        1.7141277339
H                 0.9740230491       -0.1012031198        3.2454712742



