%nprocshared=20
%mem=5GB
#p m062x/cc-pVTZ opt=(ts,calcfc,noeigentest,maxcycles=900) freq scf=(maxcycle=900) IOP(7/33=1,2/16=3) 

Gaussian input prepared by ASE

0 2
O                 1.7948190000        0.5488300000        0.4598670000
O                 1.6538140000       -0.3425120000       -0.5990830000
C                -1.6540390000       -0.3680240000       -0.0646450000
C                -0.4354430000       -1.1672210000        0.3046190000
C                -1.3817700000        1.1340090000       -0.0957110000
H                -2.4398860000       -0.5760070000        0.6711100000
H                -2.0471240000       -0.6976190000       -1.0270830000
H                 0.5697020000       -0.7631600000       -0.5319110000
H                 0.0385490000       -0.8950990000        1.2415740000
H                -0.4862140000       -2.2391910000        0.1351630000
H                -0.9625370000        1.4660530000        0.8546400000
H                -2.2908620000        1.7013370000       -0.2876000000
H                -0.6647560000        1.3692990000       -0.8839170000
H                 1.5215730000        1.3912620000        0.0761710000



