%nprocshared=20
%mem=5GB
#p m062x/cc-pVTZ opt=(ts,calcfc,noeigentest,maxcycles=900) freq scf=(maxcycle=900) IOP(7/33=1,2/16=3) 

Gaussian input prepared by ASE

0 2
O                -1.6750630000       -0.6126980000        0.4653210000
O                -1.4689560000        0.1972550000       -0.6513440000
C                 1.2314100000        0.1277970000        0.5842760000
C                 0.5926790000        1.3210010000       -0.0608580000
C                 1.4418030000       -1.0324260000       -0.3796940000
H                 0.6281940000       -0.1949270000        1.4344530000
H                 2.1946970000        0.4434250000        1.0021470000
H                -0.7213790000        1.0140340000       -0.2897430000
H                 0.5061140000        2.2140960000        0.5553020000
H                 0.9145510000        1.5339640000       -1.0778340000
H                 0.4857880000       -1.3965140000       -0.7504410000
H                 1.9614270000       -1.8575590000        0.1050730000
H                 2.0378160000       -0.7142100000       -1.2357520000
H                -2.4504000000       -0.2170010000        0.8826340000



